* NGSPICE file created from TOP.ext - technology: gf180mcuD

.subckt TOP VDD VCTRL OUT VCNB VCNS VSS
X0 VDD.t20 a_n8471_219.t5 a_3149_2840 VDD.t19 pfet_03v3 ad=0.585p pd=3.1u as=0.585p ps=3.1u w=0.9u l=0.33u
X1 VSS.t29 a_n4208_n141.t3 a_n671_n1138 VSS.t28 nfet_03v3 ad=0.2646p pd=2.1u as=0.2646p ps=2.1u w=0.42u l=0.33u
X2 OUT.t0 a_11009_2840 a_14657_n1138 VSS.t5 nfet_03v3 ad=0.5124p pd=2.9u as=0.5124p ps=2.9u w=0.84u l=0.33u
X3 a_7177_2840 a_3345_2840 a_6981_2840 VDD.t4 pfet_03v3 ad=1.17p pd=4.9u as=1.17p ps=4.9u w=1.8u l=0.33u
X4 VSS.t10 VCNS.t0 a_n8659_n1230 VSS.t9 nfet_03v3 ad=0.52p pd=2.52u as=0.52p ps=2.52u w=2u l=0.33u
X5 VSS.t34 a_16431_6193 VSS.t30 ppolyf_u r_width=0.8u r_length=0.13m
X6 a_n8471_219.t1 VCNB.t0 a_n8659_n1230 VSS.t4 nfet_03v3 ad=0.52p pd=2.52u as=1.22p ps=5.22u w=2u l=0.33u
X7 VDD.t18 a_n8471_219.t6 a_18477_2840 VDD.t17 pfet_03v3 ad=0.585p pd=3.1u as=0.585p ps=3.1u w=0.9u l=0.33u
X8 VSS.t15 VCNS.t1 a_n8659_n1230 VSS.t14 nfet_03v3 ad=0.52p pd=2.52u as=1.22p ps=5.22u w=2u l=0.33u
X9 VDD.t16 a_n8471_219.t3 a_n8471_219.t4 VDD.t15 pfet_03v3 ad=0.585p pd=3.1u as=0.585p ps=3.1u w=0.9u l=0.33u
X10 VDD.t14 a_n8471_219.t7 a_n683_2840 VDD.t13 pfet_03v3 ad=0.585p pd=3.1u as=0.585p ps=3.1u w=0.9u l=0.33u
X11 a_11009_2840 a_7177_2840 a_10813_2840 VDD.t3 pfet_03v3 ad=1.17p pd=4.9u as=1.17p ps=4.9u w=1.8u l=0.33u
X12 a_3345_2840 a_n487_2840 a_3149_2840 VDD.t2 pfet_03v3 ad=1.17p pd=4.9u as=1.17p ps=4.9u w=1.8u l=0.33u
X13 a_n4208_n141.t2 a_n8471_219.t8 VDD.t12 VDD.t11 pfet_03v3 ad=0.585p pd=3.1u as=0.585p ps=3.1u w=0.9u l=0.33u
X14 a_n487_2840 OUT.t2 a_n671_n1138 VSS.t1 nfet_03v3 ad=0.5124p pd=2.9u as=0.5124p ps=2.9u w=0.84u l=0.33u
X15 a_7177_2840 a_3345_2840 a_6993_n1138 VSS.t33 nfet_03v3 ad=0.5124p pd=2.9u as=0.5124p ps=2.9u w=0.84u l=0.33u
X16 a_n8471_219.t0 VCTRL.t0 a_n9701_6193 VSS.t0 nfet_03v3 ad=0.488p pd=2.82u as=0.488p ps=2.82u w=0.8u l=0.33u
X17 a_18673_2840 OUT.t3 a_18477_2840 VDD.t21 pfet_03v3 ad=1.17p pd=4.9u as=1.17p ps=4.9u w=1.8u l=0.33u
X18 a_18673_2840 OUT.t4 a_18489_n1138 VSS.t13 nfet_03v3 ad=0.5124p pd=2.9u as=0.5124p ps=2.9u w=0.84u l=0.33u
X19 VSS.t27 a_n4208_n141.t4 a_18489_n1138 VSS.t26 nfet_03v3 ad=0.2646p pd=2.1u as=0.2646p ps=2.1u w=0.42u l=0.33u
X20 a_n487_2840 OUT.t5 a_n683_2840 VDD.t1 pfet_03v3 ad=1.17p pd=4.9u as=1.17p ps=4.9u w=1.8u l=0.33u
X21 a_n8659_n1230 VCNS.t2 VSS.t3 VSS.t2 nfet_03v3 ad=0.52p pd=2.52u as=0.52p ps=2.52u w=2u l=0.33u
X22 VDD.t10 a_n8471_219.t9 a_14645_2840 VDD.t9 pfet_03v3 ad=0.585p pd=3.1u as=0.585p ps=3.1u w=0.9u l=0.33u
X23 VSS.t25 a_n4208_n141.t5 a_14657_n1138 VSS.t24 nfet_03v3 ad=0.2646p pd=2.1u as=0.2646p ps=2.1u w=0.42u l=0.33u
X24 VSS.t23 a_n4208_n141.t6 a_3161_n1138 VSS.t22 nfet_03v3 ad=0.2646p pd=2.1u as=0.2646p ps=2.1u w=0.42u l=0.33u
X25 VDD.t8 a_n8471_219.t10 a_6981_2840 VDD.t7 pfet_03v3 ad=0.585p pd=3.1u as=0.585p ps=3.1u w=0.9u l=0.33u
X26 a_n8471_219.t2 VCNB.t1 a_n8659_n1230 VSS.t8 nfet_03v3 ad=0.52p pd=2.52u as=0.52p ps=2.52u w=2u l=0.33u
X27 a_n4208_n141.t1 a_n4208_n141.t0 VSS.t21 VSS.t20 nfet_03v3 ad=0.2646p pd=2.1u as=0.2646p ps=2.1u w=0.42u l=0.33u
X28 a_11009_2840 a_7177_2840 a_10825_n1138 VSS.t32 nfet_03v3 ad=0.5124p pd=2.9u as=0.5124p ps=2.9u w=0.84u l=0.33u
X29 VSS.t19 a_n4208_n141.t7 a_6993_n1138 VSS.t18 nfet_03v3 ad=0.2646p pd=2.1u as=0.2646p ps=2.1u w=0.42u l=0.33u
X30 a_n8659_n1230 VCNB.t2 a_n8471_219.t2 VSS.t11 nfet_03v3 ad=1.22p pd=5.22u as=0.52p ps=2.52u w=2u l=0.33u
X31 a_n8659_n1230 VCNS.t3 VSS.t7 VSS.t6 nfet_03v3 ad=1.22p pd=5.22u as=0.52p ps=2.52u w=2u l=0.33u
X32 a_3345_2840 a_n487_2840 a_3161_n1138 VSS.t31 nfet_03v3 ad=0.5124p pd=2.9u as=0.5124p ps=2.9u w=0.84u l=0.33u
X33 VSS.t17 a_n4208_n141.t8 a_10825_n1138 VSS.t16 nfet_03v3 ad=0.2646p pd=2.1u as=0.2646p ps=2.1u w=0.42u l=0.33u
X34 a_n9701_6193 a_16431_6193 VSS.t30 ppolyf_u r_width=0.8u r_length=0.13m
X35 VDD.t6 a_n8471_219.t11 a_10813_2840 VDD.t5 pfet_03v3 ad=0.585p pd=3.1u as=0.585p ps=3.1u w=0.9u l=0.33u
X36 a_n8659_n1230 VCNB.t3 a_n8471_219.t1 VSS.t12 nfet_03v3 ad=0.52p pd=2.52u as=0.52p ps=2.52u w=2u l=0.33u
X37 OUT.t1 a_11009_2840 a_14645_2840 VDD.t0 pfet_03v3 ad=1.17p pd=4.9u as=1.17p ps=4.9u w=1.8u l=0.33u
R0 a_n8471_219.n1 a_n8471_219.t6 31.1854
R1 a_n8471_219.n0 a_n8471_219.t8 30.4809
R2 a_n8471_219.n0 a_n8471_219.t7 29.7468
R3 a_n8471_219.n0 a_n8471_219.t5 29.7468
R4 a_n8471_219.n2 a_n8471_219.t10 29.7468
R5 a_n8471_219.n2 a_n8471_219.t11 29.7468
R6 a_n8471_219.n1 a_n8471_219.t9 29.7468
R7 a_n8471_219.n3 a_n8471_219.t3 28.2414
R8 a_n8471_219.n0 a_n8471_219.t0 11.7439
R9 a_n8471_219.n3 a_n8471_219.t4 8.52921
R10 a_n8471_219.t1 a_n8471_219.n4 4.56638
R11 a_n8471_219.n4 a_n8471_219.t2 4.38259
R12 a_n8471_219.n4 a_n8471_219.n0 3.5234
R13 a_n8471_219.n0 a_n8471_219.n2 2.8778
R14 a_n8471_219.n2 a_n8471_219.n1 2.8778
R15 a_n8471_219.n0 a_n8471_219.n3 2.4541
R16 VDD.n2 VDD.t17 589.355
R17 VDD.n8 VDD.t9 589.355
R18 VDD.n15 VDD.t5 589.355
R19 VDD.n22 VDD.t7 589.355
R20 VDD.n29 VDD.t19 589.355
R21 VDD.n36 VDD.t13 589.355
R22 VDD.n42 VDD.t15 589.355
R23 VDD.n41 VDD.t11 589.355
R24 VDD.n3 VDD.t21 419.211
R25 VDD.n9 VDD.t0 419.211
R26 VDD.n16 VDD.t3 419.211
R27 VDD.n23 VDD.t4 419.211
R28 VDD.n30 VDD.t2 419.211
R29 VDD.n37 VDD.t1 419.211
R30 VDD.n42 VDD.t16 8.52192
R31 VDD.n41 VDD.t12 8.52192
R32 VDD.n2 VDD.t18 8.46717
R33 VDD.n8 VDD.t10 8.46717
R34 VDD.n15 VDD.t6 8.46717
R35 VDD.n22 VDD.t8 8.46717
R36 VDD.n29 VDD.t20 8.46717
R37 VDD.n36 VDD.t14 8.46717
R38 VDD.n4 VDD.n1 4.5005
R39 VDD.n1 VDD.n0 4.5005
R40 VDD.n4 VDD.n3 4.5005
R41 VDD.n3 VDD.n0 4.5005
R42 VDD.n10 VDD.n7 4.5005
R43 VDD.n7 VDD.n6 4.5005
R44 VDD.n10 VDD.n9 4.5005
R45 VDD.n9 VDD.n6 4.5005
R46 VDD.n17 VDD.n14 4.5005
R47 VDD.n14 VDD.n13 4.5005
R48 VDD.n17 VDD.n16 4.5005
R49 VDD.n16 VDD.n13 4.5005
R50 VDD.n24 VDD.n21 4.5005
R51 VDD.n21 VDD.n20 4.5005
R52 VDD.n24 VDD.n23 4.5005
R53 VDD.n23 VDD.n20 4.5005
R54 VDD.n31 VDD.n28 4.5005
R55 VDD.n28 VDD.n27 4.5005
R56 VDD.n31 VDD.n30 4.5005
R57 VDD.n30 VDD.n27 4.5005
R58 VDD.n38 VDD.n35 4.5005
R59 VDD.n35 VDD.n34 4.5005
R60 VDD.n38 VDD.n37 4.5005
R61 VDD.n37 VDD.n34 4.5005
R62 VDD.n44 VDD.n43 4.06871
R63 VDD VDD.n5 3.40475
R64 VDD.n12 VDD.n11 2.70462
R65 VDD.n19 VDD.n18 2.70462
R66 VDD.n26 VDD.n25 2.70462
R67 VDD.n33 VDD.n32 2.70462
R68 VDD.n40 VDD.n39 2.70462
R69 VDD VDD.n44 0.777875
R70 VDD.n12 VDD 0.737375
R71 VDD.n19 VDD 0.7265
R72 VDD.n26 VDD 0.7265
R73 VDD.n33 VDD 0.7265
R74 VDD.n40 VDD 0.7265
R75 VDD.n44 VDD 0.7265
R76 VDD VDD.n12 0.7115
R77 VDD VDD.n19 0.7115
R78 VDD VDD.n26 0.7115
R79 VDD VDD.n33 0.7115
R80 VDD VDD.n40 0.7115
R81 VDD.n43 VDD.n42 0.181952
R82 VDD.n43 VDD.n41 0.146702
R83 VDD.n5 VDD.n4 0.024117
R84 VDD.n11 VDD.n10 0.024117
R85 VDD.n18 VDD.n17 0.024117
R86 VDD.n25 VDD.n24 0.024117
R87 VDD.n32 VDD.n31 0.024117
R88 VDD.n39 VDD.n38 0.024117
R89 VDD.n5 VDD.n0 0.0237979
R90 VDD.n11 VDD.n6 0.0237979
R91 VDD.n18 VDD.n13 0.0237979
R92 VDD.n25 VDD.n20 0.0237979
R93 VDD.n32 VDD.n27 0.0237979
R94 VDD.n39 VDD.n34 0.0237979
R95 VDD.n2 VDD.n1 0.020375
R96 VDD.n3 VDD.n2 0.020375
R97 VDD.n8 VDD.n7 0.020375
R98 VDD.n9 VDD.n8 0.020375
R99 VDD.n15 VDD.n14 0.020375
R100 VDD.n16 VDD.n15 0.020375
R101 VDD.n22 VDD.n21 0.020375
R102 VDD.n23 VDD.n22 0.020375
R103 VDD.n29 VDD.n28 0.020375
R104 VDD.n30 VDD.n29 0.020375
R105 VDD.n36 VDD.n35 0.020375
R106 VDD.n37 VDD.n36 0.020375
R107 a_n4208_n141.n2 a_n4208_n141.t4 26.5147
R108 a_n4208_n141.n1 a_n4208_n141.t3 25.076
R109 a_n4208_n141.n1 a_n4208_n141.t6 25.076
R110 a_n4208_n141.n3 a_n4208_n141.t7 25.076
R111 a_n4208_n141.n3 a_n4208_n141.t8 25.076
R112 a_n4208_n141.n2 a_n4208_n141.t5 25.076
R113 a_n4208_n141.n0 a_n4208_n141.t0 23.009
R114 a_n4208_n141.n0 a_n4208_n141.t1 12.3005
R115 a_n4208_n141.t2 a_n4208_n141.n1 11.2556
R116 a_n4208_n141.n1 a_n4208_n141.n0 3.08843
R117 a_n4208_n141.n1 a_n4208_n141.n3 2.8778
R118 a_n4208_n141.n3 a_n4208_n141.n2 2.8778
R119 VSS.n2271 VSS.n2231 168832
R120 VSS.n1479 VSS.n188 136590
R121 VSS.n741 VSS.n740 134875
R122 VSS.n1485 VSS.n1484 134875
R123 VSS.n1483 VSS.n1482 134875
R124 VSS.n1481 VSS.n1480 134875
R125 VSS.n741 VSS.n513 126750
R126 VSS.n1484 VSS.n1483 126750
R127 VSS.n1482 VSS.n1481 126750
R128 VSS.n1480 VSS.n1479 126750
R129 VSS.n1913 VSS.n188 65268.1
R130 VSS.n2271 VSS.n2270 63487.1
R131 VSS.n2028 VSS.n2027 23007.5
R132 VSS.n224 VSS.n223 17472.4
R133 VSS.n1790 VSS.n222 13029.1
R134 VSS.n2231 VSS.n2230 11767.2
R135 VSS.n2230 VSS.n80 11262.4
R136 VSS.n2056 VSS.n2055 6332.65
R137 VSS.n2027 VSS.n130 5968.01
R138 VSS.n1991 VSS.n130 5872.22
R139 VSS.n2270 VSS.n2232 5104.34
R140 VSS.n222 VSS.n117 4375.37
R141 VSS.n744 VSS.n741 3636.7
R142 VSS.n1484 VSS.n117 3636.7
R143 VSS.n1482 VSS.n117 3636.7
R144 VSS.n1480 VSS.n117 3636.7
R145 VSS.n1682 VSS.n1655 2950.24
R146 VSS.n1682 VSS.n224 2950.24
R147 VSS.n1655 VSS.n267 2950.24
R148 VSS.n849 VSS.n267 2950.24
R149 VSS.n849 VSS.n117 2950.24
R150 VSS.n744 VSS.n518 2950.24
R151 VSS.n1790 VSS.n224 2338.06
R152 VSS.n1707 VSS.n117 1959.56
R153 VSS.n1024 VSS.n117 1959.56
R154 VSS.n1059 VSS.n117 1959.56
R155 VSS.n1094 VSS.n117 1959.56
R156 VSS.n1129 VSS.n117 1959.56
R157 VSS.n188 VSS.n117 1872.67
R158 VSS.n1996 VSS.t20 1362.36
R159 VSS.t30 VSS.n2057 1272.15
R160 VSS.n2367 VSS.t0 1191.42
R161 VSS.n456 VSS.t24 948.962
R162 VSS.n376 VSS.t18 948.962
R163 VSS.n153 VSS.t28 948.962
R164 VSS.n375 VSS.t22 948.962
R165 VSS.n379 VSS.t16 948.962
R166 VSS.n666 VSS.t26 948.962
R167 VSS.n456 VSS.t5 873.535
R168 VSS.n376 VSS.t33 873.535
R169 VSS.n153 VSS.t1 873.535
R170 VSS.n375 VSS.t31 873.535
R171 VSS.n379 VSS.t32 873.535
R172 VSS.n666 VSS.t13 873.535
R173 VSS.n223 VSS.n117 814.926
R174 VSS.n2331 VSS.t4 782.77
R175 VSS.n550 VSS.n545 781.367
R176 VSS.n2316 VSS.t14 769.106
R177 VSS.n2269 VSS.n2233 583.484
R178 VSS.n2263 VSS.n2233 583.484
R179 VSS.n2263 VSS.n2262 583.484
R180 VSS.n2262 VSS.n2261 583.484
R181 VSS.n2261 VSS.n2244 583.484
R182 VSS.n2255 VSS.n2244 583.484
R183 VSS.n2255 VSS.n2254 583.484
R184 VSS.n2254 VSS.n49 583.484
R185 VSS.n1432 VSS.n1409 534.539
R186 VSS.n1432 VSS.n1431 534.539
R187 VSS.n1431 VSS.n1430 534.539
R188 VSS.n1430 VSS.n1410 534.539
R189 VSS.n1424 VSS.n1410 534.539
R190 VSS.n1424 VSS.n1423 534.539
R191 VSS.n1301 VSS.n1255 534.539
R192 VSS.n1301 VSS.n1300 534.539
R193 VSS.n1300 VSS.n1299 534.539
R194 VSS.n1299 VSS.n1278 534.539
R195 VSS.n1293 VSS.n1278 534.539
R196 VSS.n1293 VSS.n1292 534.539
R197 VSS.n1388 VSS.n1250 534.539
R198 VSS.n1388 VSS.n1387 534.539
R199 VSS.n1387 VSS.n1386 534.539
R200 VSS.n1386 VSS.n1251 534.539
R201 VSS.n1380 VSS.n1251 534.539
R202 VSS.n1380 VSS.n1379 534.539
R203 VSS.n1219 VSS.n1218 534.539
R204 VSS.n1220 VSS.n1219 534.539
R205 VSS.n1220 VSS.n453 534.539
R206 VSS.n1227 VSS.n453 534.539
R207 VSS.n1228 VSS.n1227 534.539
R208 VSS.n1229 VSS.n1228 534.539
R209 VSS.n693 VSS.n670 534.539
R210 VSS.n693 VSS.n692 534.539
R211 VSS.n692 VSS.n691 534.539
R212 VSS.n691 VSS.n671 534.539
R213 VSS.n685 VSS.n671 534.539
R214 VSS.n685 VSS.n684 534.539
R215 VSS.n1965 VSS.n1964 534.539
R216 VSS.n1966 VSS.n1965 534.539
R217 VSS.n1966 VSS.n150 534.539
R218 VSS.n1973 VSS.n150 534.539
R219 VSS.n1974 VSS.n1973 534.539
R220 VSS.n1975 VSS.n1974 534.539
R221 VSS.t8 VSS.t11 519.268
R222 VSS.t12 VSS.t8 519.268
R223 VSS.t4 VSS.t12 519.268
R224 VSS.n2302 VSS.n49 513.466
R225 VSS.t9 VSS.t6 510.158
R226 VSS.t2 VSS.t9 510.158
R227 VSS.t14 VSS.t2 510.158
R228 VSS.n833 VSS.n117 475.276
R229 VSS.n901 VSS.n117 475.276
R230 VSS.n968 VSS.n117 475.276
R231 VSS.n1699 VSS.n117 475.276
R232 VSS.n2058 VSS.t30 461.793
R233 VSS.n2336 VSS.n28 456.781
R234 VSS.n2336 VSS.n2335 456.781
R235 VSS.n2335 VSS.n2334 456.781
R236 VSS.n2334 VSS.n33 456.781
R237 VSS.n2328 VSS.n33 456.781
R238 VSS.n2328 VSS.n2327 456.781
R239 VSS.n2327 VSS.n2326 456.781
R240 VSS.n2326 VSS.n37 456.781
R241 VSS.n2320 VSS.n37 456.781
R242 VSS.n2320 VSS.n2319 456.781
R243 VSS.n2319 VSS.n2318 456.781
R244 VSS.n2318 VSS.n41 456.781
R245 VSS.n2312 VSS.n41 456.781
R246 VSS.n2312 VSS.n2311 456.781
R247 VSS.n2311 VSS.n2310 456.781
R248 VSS.n2310 VSS.n45 456.781
R249 VSS.n2304 VSS.n45 456.781
R250 VSS.n2304 VSS.n2303 456.781
R251 VSS.n2270 VSS.n2269 425.943
R252 VSS.n744 VSS.n521 364.974
R253 VSS.n1493 VSS.n117 364.974
R254 VSS.n1531 VSS.n117 364.974
R255 VSS.n1569 VSS.n117 364.974
R256 VSS.n1595 VSS.n117 364.974
R257 VSS.n1888 VSS.n117 364.974
R258 VSS.n2224 VSS.n80 354.031
R259 VSS.n2224 VSS.n2223 354.031
R260 VSS.n2223 VSS.n2222 354.031
R261 VSS.n2222 VSS.n2201 354.031
R262 VSS.n2216 VSS.n2201 354.031
R263 VSS.n2057 VSS.n2056 350.44
R264 VSS.n2216 VSS.n20 341.639
R265 VSS.n2342 VSS.n28 326.632
R266 VSS.n2372 VSS.n2371 325.978
R267 VSS.n2371 VSS.n2370 325.978
R268 VSS.n2370 VSS.n11 325.978
R269 VSS.n2363 VSS.n11 325.978
R270 VSS.n2363 VSS.n2362 325.978
R271 VSS.n2362 VSS.n2361 325.978
R272 VSS.n2361 VSS.n16 325.978
R273 VSS.n2355 VSS.n16 325.978
R274 VSS.n2355 VSS.n2354 325.978
R275 VSS.n2354 VSS.n2353 325.978
R276 VSS.n2344 VSS.n2343 325.978
R277 VSS.n2343 VSS.n2342 325.978
R278 VSS.n1775 VSS.n229 316.457
R279 VSS.n1781 VSS.n229 316.457
R280 VSS.n1782 VSS.n1781 316.457
R281 VSS.n1783 VSS.n1782 316.457
R282 VSS.n1783 VSS.n225 316.457
R283 VSS.n1789 VSS.n225 316.457
R284 VSS.n1792 VSS.n1791 316.457
R285 VSS.n1792 VSS.n218 316.457
R286 VSS.n1798 VSS.n218 316.457
R287 VSS.n1799 VSS.n1798 316.457
R288 VSS.n1800 VSS.n1799 316.457
R289 VSS.n1800 VSS.n214 316.457
R290 VSS.n1806 VSS.n214 316.457
R291 VSS.n1807 VSS.n1806 316.457
R292 VSS.n1808 VSS.n1807 316.457
R293 VSS.n1853 VSS.n1852 316.457
R294 VSS.n1852 VSS.n1851 316.457
R295 VSS.n1851 VSS.n1813 316.457
R296 VSS.n1845 VSS.n1813 316.457
R297 VSS.n1845 VSS.n1844 316.457
R298 VSS.n1844 VSS.n1843 316.457
R299 VSS.n1843 VSS.n1817 316.457
R300 VSS.n1837 VSS.n1817 316.457
R301 VSS.n1837 VSS.n1836 316.457
R302 VSS.n1836 VSS.n1835 316.457
R303 VSS.n1835 VSS.n1821 316.457
R304 VSS.n1829 VSS.n1821 316.457
R305 VSS.n1829 VSS.n1828 316.457
R306 VSS.n1828 VSS.n1827 316.457
R307 VSS.n1827 VSS.n131 316.457
R308 VSS.n2026 VSS.n132 316.457
R309 VSS.n2020 VSS.n132 316.457
R310 VSS.n2020 VSS.n2019 316.457
R311 VSS.n2019 VSS.n2018 316.457
R312 VSS.n2137 VSS.n98 310.856
R313 VSS.n1423 VSS.n156 307.361
R314 VSS.n1292 VSS.n358 307.361
R315 VSS.n1379 VSS.n1378 307.361
R316 VSS.n1229 VSS.n447 307.361
R317 VSS.n684 VSS.n458 307.361
R318 VSS.n1975 VSS.n138 307.361
R319 VSS.n1409 VSS.n358 304.688
R320 VSS.n1378 VSS.n1255 304.688
R321 VSS.n1250 VSS.n447 304.688
R322 VSS.n1218 VSS.n458 304.688
R323 VSS.n670 VSS.n654 304.688
R324 VSS.n1964 VSS.n156 304.688
R325 VSS.n2002 VSS.n2001 302.748
R326 VSS.n2001 VSS.n2000 302.748
R327 VSS.n2000 VSS.n1993 302.748
R328 VSS.n1993 VSS.n70 302.748
R329 VSS.n2283 VSS.n70 302.748
R330 VSS.n2283 VSS.n2282 302.748
R331 VSS.n2118 VSS.n98 301.029
R332 VSS.n2018 VSS.n138 287.976
R333 VSS.n733 VSS.n522 278.851
R334 VSS.n733 VSS.n732 278.851
R335 VSS.n732 VSS.n731 278.851
R336 VSS.n731 VSS.n638 278.851
R337 VSS.n725 VSS.n638 278.851
R338 VSS.n725 VSS.n724 278.851
R339 VSS.n724 VSS.n723 278.851
R340 VSS.n723 VSS.n642 278.851
R341 VSS.n717 VSS.n642 278.851
R342 VSS.n717 VSS.n716 278.851
R343 VSS.n716 VSS.n715 278.851
R344 VSS.n715 VSS.n646 278.851
R345 VSS.n709 VSS.n646 278.851
R346 VSS.n709 VSS.n708 278.851
R347 VSS.n708 VSS.n707 278.851
R348 VSS.n707 VSS.n650 278.851
R349 VSS.n550 VSS.n517 278.373
R350 VSS.n745 VSS.n517 278.373
R351 VSS.n2184 VSS.n2140 277.659
R352 VSS.n2178 VSS.n2140 277.659
R353 VSS.n2178 VSS.n2177 277.659
R354 VSS.n2177 VSS.n2176 277.659
R355 VSS.n2176 VSS.n2163 277.659
R356 VSS.n2165 VSS.n2163 277.659
R357 VSS.n2165 VSS.n78 277.659
R358 VSS.n2273 VSS.n2272 277.659
R359 VSS.n2273 VSS.n71 277.659
R360 VSS.n2280 VSS.n72 277.659
R361 VSS.n72 VSS.n60 277.659
R362 VSS.n1472 VSS.n330 270.495
R363 VSS.n1472 VSS.n1471 270.495
R364 VSS.n1471 VSS.n1470 270.495
R365 VSS.n1470 VSS.n342 270.495
R366 VSS.n1464 VSS.n342 270.495
R367 VSS.n1464 VSS.n1463 270.495
R368 VSS.n1463 VSS.n1462 270.495
R369 VSS.n1462 VSS.n346 270.495
R370 VSS.n1456 VSS.n346 270.495
R371 VSS.n1456 VSS.n1455 270.495
R372 VSS.n1455 VSS.n1454 270.495
R373 VSS.n1454 VSS.n350 270.495
R374 VSS.n1448 VSS.n350 270.495
R375 VSS.n1448 VSS.n1447 270.495
R376 VSS.n1447 VSS.n1446 270.495
R377 VSS.n1446 VSS.n354 270.495
R378 VSS.n1345 VSS.n328 270.495
R379 VSS.n1346 VSS.n1345 270.495
R380 VSS.n1347 VSS.n1346 270.495
R381 VSS.n1347 VSS.n1327 270.495
R382 VSS.n1353 VSS.n1327 270.495
R383 VSS.n1354 VSS.n1353 270.495
R384 VSS.n1355 VSS.n1354 270.495
R385 VSS.n1355 VSS.n1323 270.495
R386 VSS.n1361 VSS.n1323 270.495
R387 VSS.n1362 VSS.n1361 270.495
R388 VSS.n1363 VSS.n1362 270.495
R389 VSS.n1363 VSS.n1319 270.495
R390 VSS.n1369 VSS.n1319 270.495
R391 VSS.n1370 VSS.n1369 270.495
R392 VSS.n1371 VSS.n1370 270.495
R393 VSS.n1371 VSS.n1256 270.495
R394 VSS.n414 VSS.n326 270.495
R395 VSS.n414 VSS.n400 270.495
R396 VSS.n420 VSS.n400 270.495
R397 VSS.n421 VSS.n420 270.495
R398 VSS.n422 VSS.n421 270.495
R399 VSS.n422 VSS.n396 270.495
R400 VSS.n428 VSS.n396 270.495
R401 VSS.n429 VSS.n428 270.495
R402 VSS.n430 VSS.n429 270.495
R403 VSS.n430 VSS.n392 270.495
R404 VSS.n436 VSS.n392 270.495
R405 VSS.n437 VSS.n436 270.495
R406 VSS.n438 VSS.n437 270.495
R407 VSS.n438 VSS.n388 270.495
R408 VSS.n445 VSS.n388 270.495
R409 VSS.n446 VSS.n445 270.495
R410 VSS.n1168 VSS.n486 270.495
R411 VSS.n1174 VSS.n486 270.495
R412 VSS.n1175 VSS.n1174 270.495
R413 VSS.n1176 VSS.n1175 270.495
R414 VSS.n1176 VSS.n482 270.495
R415 VSS.n1182 VSS.n482 270.495
R416 VSS.n1183 VSS.n1182 270.495
R417 VSS.n1184 VSS.n1183 270.495
R418 VSS.n1184 VSS.n478 270.495
R419 VSS.n1190 VSS.n478 270.495
R420 VSS.n1191 VSS.n1190 270.495
R421 VSS.n1192 VSS.n1191 270.495
R422 VSS.n1192 VSS.n474 270.495
R423 VSS.n1199 VSS.n474 270.495
R424 VSS.n1200 VSS.n1199 270.495
R425 VSS.n1201 VSS.n1200 270.495
R426 VSS.n1914 VSS.n184 270.495
R427 VSS.n1920 VSS.n184 270.495
R428 VSS.n1921 VSS.n1920 270.495
R429 VSS.n1922 VSS.n1921 270.495
R430 VSS.n1922 VSS.n180 270.495
R431 VSS.n1928 VSS.n180 270.495
R432 VSS.n1929 VSS.n1928 270.495
R433 VSS.n1930 VSS.n1929 270.495
R434 VSS.n1930 VSS.n176 270.495
R435 VSS.n1936 VSS.n176 270.495
R436 VSS.n1937 VSS.n1936 270.495
R437 VSS.n1938 VSS.n1937 270.495
R438 VSS.n1938 VSS.n172 270.495
R439 VSS.n1945 VSS.n172 270.495
R440 VSS.n1946 VSS.n1945 270.495
R441 VSS.n1947 VSS.n1946 270.495
R442 VSS.n2185 VSS.n2184 263.776
R443 VSS.n1791 VSS.n1790 261.077
R444 VSS.n2372 VSS.n10 260.783
R445 VSS.n654 VSS.n650 253.755
R446 VSS.n2094 VSS.n2093 253.214
R447 VSS.n2093 VSS.n2092 253.214
R448 VSS.n2092 VSS.n2059 253.214
R449 VSS.n2086 VSS.n2059 253.214
R450 VSS.n2086 VSS.n2085 253.214
R451 VSS.n2085 VSS.n2084 253.214
R452 VSS.n2084 VSS.n2064 253.214
R453 VSS.n2078 VSS.n2064 253.214
R454 VSS.n2078 VSS.n2077 253.214
R455 VSS.n2077 VSS.n2076 253.214
R456 VSS.n2076 VSS.n2068 253.214
R457 VSS.n2070 VSS.n2068 253.214
R458 VSS.n10 VSS.n2 250.683
R459 VSS.n745 VSS.n744 250.536
R460 VSS.n358 VSS.n354 246.151
R461 VSS.n1378 VSS.n1256 246.151
R462 VSS.n447 VSS.n446 246.151
R463 VSS.n1201 VSS.n458 246.151
R464 VSS.n1947 VSS.n156 246.151
R465 VSS.n571 VSS.n542 242.81
R466 VSS.n572 VSS.n571 242.81
R467 VSS.n573 VSS.n572 242.81
R468 VSS.n573 VSS.n538 242.81
R469 VSS.n579 VSS.n538 242.81
R470 VSS.n580 VSS.n579 242.81
R471 VSS.n581 VSS.n580 242.81
R472 VSS.n587 VSS.n534 242.81
R473 VSS.n588 VSS.n587 242.81
R474 VSS.n589 VSS.n588 242.81
R475 VSS.n589 VSS.n530 242.81
R476 VSS.n595 VSS.n530 242.81
R477 VSS.n596 VSS.n595 242.81
R478 VSS.n598 VSS.n596 242.81
R479 VSS.n598 VSS.n597 242.81
R480 VSS.n632 VSS.n520 242.81
R481 VSS.n632 VSS.n523 242.81
R482 VSS.n739 VSS.n523 242.81
R483 VSS.n740 VSS.n739 239.167
R484 VSS.n2109 VSS.n2108 228.954
R485 VSS.n2110 VSS.n2109 228.954
R486 VSS.n2110 VSS.n103 228.954
R487 VSS.n2116 VSS.n103 228.954
R488 VSS.n2117 VSS.n2116 228.954
R489 VSS.n2118 VSS.n2117 228.954
R490 VSS.n2057 VSS.n118 213.608
R491 VSS.n886 VSS.n885 210.766
R492 VSS.n885 VSS.n884 210.766
R493 VSS.n884 VSS.n841 210.766
R494 VSS.n878 VSS.n841 210.766
R495 VSS.n878 VSS.n877 210.766
R496 VSS.n877 VSS.n876 210.766
R497 VSS.n876 VSS.n845 210.766
R498 VSS.n870 VSS.n869 210.766
R499 VSS.n869 VSS.n868 210.766
R500 VSS.n868 VSS.n850 210.766
R501 VSS.n862 VSS.n850 210.766
R502 VSS.n862 VSS.n861 210.766
R503 VSS.n861 VSS.n860 210.766
R504 VSS.n860 VSS.n854 210.766
R505 VSS.n854 VSS.n307 210.766
R506 VSS.n407 VSS.n405 210.766
R507 VSS.n407 VSS.n406 210.766
R508 VSS.n406 VSS.n327 210.766
R509 VSS.n953 VSS.n952 210.766
R510 VSS.n952 VSS.n951 210.766
R511 VSS.n951 VSS.n909 210.766
R512 VSS.n945 VSS.n909 210.766
R513 VSS.n945 VSS.n944 210.766
R514 VSS.n944 VSS.n943 210.766
R515 VSS.n943 VSS.n913 210.766
R516 VSS.n937 VSS.n936 210.766
R517 VSS.n936 VSS.n935 210.766
R518 VSS.n935 VSS.n917 210.766
R519 VSS.n929 VSS.n917 210.766
R520 VSS.n929 VSS.n928 210.766
R521 VSS.n928 VSS.n927 210.766
R522 VSS.n927 VSS.n921 210.766
R523 VSS.n921 VSS.n291 210.766
R524 VSS.n1337 VSS.n1336 210.766
R525 VSS.n1338 VSS.n1337 210.766
R526 VSS.n1338 VSS.n329 210.766
R527 VSS.n992 VSS.n991 210.766
R528 VSS.n991 VSS.n990 210.766
R529 VSS.n990 VSS.n976 210.766
R530 VSS.n984 VSS.n976 210.766
R531 VSS.n984 VSS.n983 210.766
R532 VSS.n983 VSS.n982 210.766
R533 VSS.n982 VSS.n268 210.766
R534 VSS.n1654 VSS.n269 210.766
R535 VSS.n1648 VSS.n269 210.766
R536 VSS.n1648 VSS.n1647 210.766
R537 VSS.n1647 VSS.n1646 210.766
R538 VSS.n1646 VSS.n275 210.766
R539 VSS.n1640 VSS.n275 210.766
R540 VSS.n1640 VSS.n1639 210.766
R541 VSS.n1639 VSS.n1638 210.766
R542 VSS.n336 VSS.n335 210.766
R543 VSS.n336 VSS.n331 210.766
R544 VSS.n1478 VSS.n331 210.766
R545 VSS.n1698 VSS.n255 210.766
R546 VSS.n1692 VSS.n255 210.766
R547 VSS.n1692 VSS.n1691 210.766
R548 VSS.n1691 VSS.n1690 210.766
R549 VSS.n1690 VSS.n263 210.766
R550 VSS.n1684 VSS.n263 210.766
R551 VSS.n1684 VSS.n1683 210.766
R552 VSS.n1681 VSS.n1656 210.766
R553 VSS.n1675 VSS.n1656 210.766
R554 VSS.n1675 VSS.n1674 210.766
R555 VSS.n1674 VSS.n1673 210.766
R556 VSS.n1673 VSS.n1660 210.766
R557 VSS.n1667 VSS.n1660 210.766
R558 VSS.n1667 VSS.n1666 210.766
R559 VSS.n1666 VSS.n1665 210.766
R560 VSS.n1905 VSS.n189 210.766
R561 VSS.n1911 VSS.n189 210.766
R562 VSS.n1912 VSS.n1911 210.766
R563 VSS.n2302 VSS.n2301 207.837
R564 VSS.n2054 VSS.n123 207.668
R565 VSS.n2048 VSS.n123 207.668
R566 VSS.n2048 VSS.n2047 207.668
R567 VSS.n2047 VSS.n2046 207.668
R568 VSS.n2046 VSS.n2035 207.668
R569 VSS.n2040 VSS.n2035 207.668
R570 VSS.n2040 VSS.n2039 207.668
R571 VSS.n2039 VSS.n92 207.668
R572 VSS.n2186 VSS.n92 207.668
R573 VSS.n2193 VSS.n85 207.668
R574 VSS.n2194 VSS.n2193 207.668
R575 VSS.n2195 VSS.n2194 207.668
R576 VSS.n2195 VSS.n79 207.668
R577 VSS.n1483 VSS.n327 207.605
R578 VSS.n1481 VSS.n329 207.605
R579 VSS.n1479 VSS.n1478 207.605
R580 VSS.n1913 VSS.n1912 207.605
R581 VSS.n2344 VSS.n27 200.476
R582 VSS.n2010 VSS.n145 196.203
R583 VSS.n1853 VSS.n207 194.62
R584 VSS.n26 VSS.n20 193.958
R585 VSS.n2002 VSS.n130 192.245
R586 VSS.n2231 VSS.n79 191.054
R587 VSS.n701 VSS.n700 172.887
R588 VSS.n2294 VSS.n60 172.149
R589 VSS.n1775 VSS.n118 170.887
R590 VSS.n1440 VSS.n1439 167.708
R591 VSS.n1377 VSS.n1257 167.708
R592 VSS.n1396 VSS.n1395 167.708
R593 VSS.n1211 VSS.n462 167.708
R594 VSS.n1957 VSS.n160 167.708
R595 VSS.n116 VSS.n107 163.702
R596 VSS.n2281 VSS.n71 162.431
R597 VSS.n2027 VSS.n131 158.228
R598 VSS.n2027 VSS.n2026 158.228
R599 VSS.n2058 VSS.n116 154.267
R600 VSS.n534 VSS.n518 150.542
R601 VSS.n2271 VSS.n78 138.831
R602 VSS.n2272 VSS.n2271 138.831
R603 VSS.n2353 VSS.n20 132.022
R604 VSS.n128 VSS.n122 131.869
R605 VSS.n2282 VSS.n2281 131.696
R606 VSS.n2384 VSS.n2383 131.672
R607 VSS.n545 VSS.n542 131.118
R608 VSS.n870 VSS.n849 130.674
R609 VSS.n937 VSS.n267 130.674
R610 VSS.n1655 VSS.n1654 130.674
R611 VSS.n1682 VSS.n1681 130.674
R612 VSS.n2055 VSS.n122 129.792
R613 VSS.n27 VSS.n26 125.502
R614 VSS.n2138 VSS.n2137 124.343
R615 VSS.n2108 VSS.n107 123.635
R616 VSS.n2281 VSS.n2280 115.23
R617 VSS.n886 VSS.n833 113.814
R618 VSS.n953 VSS.n901 113.814
R619 VSS.n992 VSS.n968 113.814
R620 VSS.n1699 VSS.n1698 113.814
R621 VSS.n753 VSS.n752 103.141
R622 VSS.n760 VSS.n508 103.141
R623 VSS.n759 VSS.n509 103.141
R624 VSS.n766 VSS.n504 103.141
R625 VSS.n768 VSS.n767 103.141
R626 VSS.n1161 VSS.n499 103.141
R627 VSS.n823 VSS.n492 103.141
R628 VSS.n1153 VSS.n1152 103.141
R629 VSS.n1136 VSS.n824 103.141
R630 VSS.n1146 VSS.n1137 103.141
R631 VSS.n1145 VSS.n1139 103.141
R632 VSS.n1138 VSS.n323 103.141
R633 VSS.n744 VSS.n519 101.981
R634 VSS.n2028 VSS.n128 99.9337
R635 VSS.t30 VSS.n117 95.2243
R636 VSS.n597 VSS.n519 93.482
R637 VSS.n581 VSS.n518 92.268
R638 VSS.n1523 VSS.n117 88.5219
R639 VSS.n1561 VSS.n117 88.5219
R640 VSS.n279 VSS.n117 88.5219
R641 VSS.n195 VSS.n117 88.5219
R642 VSS.n1808 VSS.n128 85.4435
R643 VSS.n1523 VSS.n307 81.1451
R644 VSS.n1561 VSS.n291 81.1451
R645 VSS.n1638 VSS.n279 81.1451
R646 VSS.n1665 VSS.n195 81.1451
R647 VSS.n849 VSS.n845 80.0913
R648 VSS.n913 VSS.n267 80.0913
R649 VSS.n1655 VSS.n268 80.0913
R650 VSS.n1683 VSS.n1682 80.0913
R651 VSS.n751 VSS.n513 77.9039
R652 VSS.n2055 VSS.n2054 77.8759
R653 VSS.n2139 VSS.n2138 77.8759
R654 VSS.n2303 VSS.n2302 75.3694
R655 VSS.n1486 VSS.n1485 75.1609
R656 VSS.n2138 VSS.n85 63.3392
R657 VSS.n1790 VSS.n1789 55.3802
R658 VSS.n1166 VSS.n1165 54.3135
R659 VSS.n2094 VSS.n2058 54.1874
R660 VSS.n1160 VSS.n490 52.6676
R661 VSS.n2185 VSS.n2139 51.9174
R662 VSS.n2186 VSS.n2185 47.7641
R663 VSS.n744 VSS.n520 47.3483
R664 VSS.n405 VSS.n117 41.0997
R665 VSS.n1336 VSS.n117 41.0997
R666 VSS.n335 VSS.n117 41.0997
R667 VSS.n1905 VSS.n117 41.0997
R668 VSS.n207 VSS.n128 36.3929
R669 VSS.n145 VSS.n138 28.4815
R670 VSS.n1485 VSS.n325 27.9799
R671 VSS.n742 VSS.n513 25.2368
R672 VSS.n701 VSS.n654 25.097
R673 VSS.n1440 VSS.n358 24.3451
R674 VSS.n1378 VSS.n1377 24.3451
R675 VSS.n1396 VSS.n447 24.3451
R676 VSS.n462 VSS.n458 24.3451
R677 VSS.n160 VSS.n156 24.3451
R678 VSS.n2057 VSS.n116 20.7673
R679 VSS.n702 VSS.n653 19.3426
R680 VSS.n2382 VSS.n6 18.4216
R681 VSS.n2378 VSS.n2377 18.4216
R682 VSS.n2374 VSS.n2373 18.4216
R683 VSS.n2373 VSS.n9 18.4216
R684 VSS.n2369 VSS.n9 18.4216
R685 VSS.n2369 VSS.n12 18.4216
R686 VSS.n2364 VSS.n12 18.4216
R687 VSS.n2364 VSS.n15 18.4216
R688 VSS.n2360 VSS.n15 18.4216
R689 VSS.n2360 VSS.n17 18.4216
R690 VSS.n2356 VSS.n17 18.4216
R691 VSS.n2356 VSS.n19 18.4216
R692 VSS.n2352 VSS.n19 18.4216
R693 VSS.n2352 VSS.n21 18.4216
R694 VSS.n2107 VSS.n106 18.4216
R695 VSS.n2111 VSS.n106 18.4216
R696 VSS.n2111 VSS.n104 18.4216
R697 VSS.n2115 VSS.n104 18.4216
R698 VSS.n2115 VSS.n102 18.4216
R699 VSS.n2119 VSS.n102 18.4216
R700 VSS.n2119 VSS.n99 18.4216
R701 VSS.n2136 VSS.n99 18.4216
R702 VSS.n2136 VSS.n100 18.4216
R703 VSS.n2132 VSS.n2131 18.4216
R704 VSS.n2128 VSS.n2127 18.4216
R705 VSS.n2124 VSS.n2123 18.4216
R706 VSS.n1906 VSS.n190 18.4216
R707 VSS.n1910 VSS.n190 18.4216
R708 VSS.n1910 VSS.n187 18.4216
R709 VSS.n1915 VSS.n187 18.4216
R710 VSS.n1915 VSS.n185 18.4216
R711 VSS.n1919 VSS.n185 18.4216
R712 VSS.n1919 VSS.n183 18.4216
R713 VSS.n1923 VSS.n183 18.4216
R714 VSS.n1923 VSS.n181 18.4216
R715 VSS.n1927 VSS.n181 18.4216
R716 VSS.n1927 VSS.n179 18.4216
R717 VSS.n1931 VSS.n179 18.4216
R718 VSS.n1931 VSS.n177 18.4216
R719 VSS.n1935 VSS.n177 18.4216
R720 VSS.n1935 VSS.n175 18.4216
R721 VSS.n1939 VSS.n175 18.4216
R722 VSS.n1939 VSS.n173 18.4216
R723 VSS.n1944 VSS.n173 18.4216
R724 VSS.n1944 VSS.n170 18.4216
R725 VSS.n1948 VSS.n170 18.4216
R726 VSS.n1949 VSS.n1948 18.4216
R727 VSS.n1697 VSS.n257 18.4216
R728 VSS.n1693 VSS.n257 18.4216
R729 VSS.n1693 VSS.n262 18.4216
R730 VSS.n1689 VSS.n262 18.4216
R731 VSS.n1689 VSS.n264 18.4216
R732 VSS.n1685 VSS.n264 18.4216
R733 VSS.n1685 VSS.n266 18.4216
R734 VSS.n1680 VSS.n266 18.4216
R735 VSS.n1680 VSS.n1657 18.4216
R736 VSS.n1676 VSS.n1657 18.4216
R737 VSS.n1676 VSS.n1659 18.4216
R738 VSS.n1672 VSS.n1659 18.4216
R739 VSS.n1672 VSS.n1661 18.4216
R740 VSS.n1668 VSS.n1661 18.4216
R741 VSS.n1668 VSS.n1664 18.4216
R742 VSS.n1664 VSS.n192 18.4216
R743 VSS.n993 VSS.n975 18.4216
R744 VSS.n989 VSS.n975 18.4216
R745 VSS.n989 VSS.n977 18.4216
R746 VSS.n985 VSS.n977 18.4216
R747 VSS.n985 VSS.n979 18.4216
R748 VSS.n981 VSS.n979 18.4216
R749 VSS.n981 VSS.n270 18.4216
R750 VSS.n1653 VSS.n270 18.4216
R751 VSS.n1653 VSS.n271 18.4216
R752 VSS.n1649 VSS.n271 18.4216
R753 VSS.n1649 VSS.n274 18.4216
R754 VSS.n1645 VSS.n274 18.4216
R755 VSS.n1645 VSS.n276 18.4216
R756 VSS.n1641 VSS.n276 18.4216
R757 VSS.n1641 VSS.n278 18.4216
R758 VSS.n1637 VSS.n278 18.4216
R759 VSS.n954 VSS.n908 18.4216
R760 VSS.n950 VSS.n908 18.4216
R761 VSS.n950 VSS.n910 18.4216
R762 VSS.n946 VSS.n910 18.4216
R763 VSS.n946 VSS.n912 18.4216
R764 VSS.n942 VSS.n912 18.4216
R765 VSS.n942 VSS.n914 18.4216
R766 VSS.n938 VSS.n914 18.4216
R767 VSS.n938 VSS.n916 18.4216
R768 VSS.n934 VSS.n916 18.4216
R769 VSS.n934 VSS.n918 18.4216
R770 VSS.n930 VSS.n918 18.4216
R771 VSS.n930 VSS.n920 18.4216
R772 VSS.n926 VSS.n920 18.4216
R773 VSS.n926 VSS.n922 18.4216
R774 VSS.n922 VSS.n300 18.4216
R775 VSS.n887 VSS.n840 18.4216
R776 VSS.n883 VSS.n840 18.4216
R777 VSS.n883 VSS.n842 18.4216
R778 VSS.n879 VSS.n842 18.4216
R779 VSS.n879 VSS.n844 18.4216
R780 VSS.n875 VSS.n844 18.4216
R781 VSS.n875 VSS.n846 18.4216
R782 VSS.n871 VSS.n846 18.4216
R783 VSS.n871 VSS.n848 18.4216
R784 VSS.n867 VSS.n848 18.4216
R785 VSS.n867 VSS.n851 18.4216
R786 VSS.n863 VSS.n851 18.4216
R787 VSS.n863 VSS.n853 18.4216
R788 VSS.n859 VSS.n853 18.4216
R789 VSS.n859 VSS.n855 18.4216
R790 VSS.n855 VSS.n316 18.4216
R791 VSS.n782 VSS.n780 18.4216
R792 VSS.n786 VSS.n779 18.4216
R793 VSS.n790 VSS.n788 18.4216
R794 VSS.n794 VSS.n777 18.4216
R795 VSS.n798 VSS.n796 18.4216
R796 VSS.n802 VSS.n775 18.4216
R797 VSS.n805 VSS.n804 18.4216
R798 VSS.n809 VSS.n808 18.4216
R799 VSS.n633 VSS.n631 18.4216
R800 VSS.n633 VSS.n524 18.4216
R801 VSS.n738 VSS.n524 18.4216
R802 VSS.n738 VSS.n525 18.4216
R803 VSS.n734 VSS.n525 18.4216
R804 VSS.n734 VSS.n637 18.4216
R805 VSS.n730 VSS.n637 18.4216
R806 VSS.n730 VSS.n639 18.4216
R807 VSS.n726 VSS.n639 18.4216
R808 VSS.n726 VSS.n641 18.4216
R809 VSS.n722 VSS.n641 18.4216
R810 VSS.n722 VSS.n643 18.4216
R811 VSS.n718 VSS.n643 18.4216
R812 VSS.n718 VSS.n645 18.4216
R813 VSS.n714 VSS.n645 18.4216
R814 VSS.n714 VSS.n647 18.4216
R815 VSS.n710 VSS.n647 18.4216
R816 VSS.n710 VSS.n649 18.4216
R817 VSS.n706 VSS.n649 18.4216