* NGSPICE file created from TOP.ext - technology: gf180mcuD

.subckt TOP VDD VCTRL OUT VCNB VCNS VSS
X0 VDD.t17 a_n8471_219.t5 a_3149_2840 VDD.t16 pfet_03v3 ad=0.585p pd=3.1u as=0.585p ps=3.1u w=0.9u l=0.33u
X1 VSS.t18 a_n4208_n141.t3 a_n671_n1138 VSS.t0 nfet_03v3 ad=0.2646p pd=2.1u as=0.2646p ps=2.1u w=0.42u l=0.33u
X2 OUT.t1 a_11009_2840 a_14657_n1138 VSS.t15 nfet_03v3 ad=0.5124p pd=2.9u as=0.5124p ps=2.9u w=0.84u l=0.33u
X3 a_7177_2840 a_3345_2840 a_6981_2840 VDD.t18 pfet_03v3 ad=1.17p pd=4.9u as=1.17p ps=4.9u w=1.8u l=0.33u
X4 VSS.t4 VCNS.t0 a_n8659_n1230 VSS.t3 nfet_03v3 ad=0.52p pd=2.52u as=0.52p ps=2.52u w=2u l=0.33u
X5 VSS.t6 a_16431_6193 VSS.t5 ppolyf_u r_width=0.8u r_length=0.13m
X6 a_n8471_219.t0 VCNB.t0 a_n8659_n1230 VSS.t23 nfet_03v3 ad=0.52p pd=2.52u as=1.22p ps=5.22u w=2u l=0.33u
X7 VDD.t15 a_n8471_219.t6 a_18477_2840 VDD.t14 pfet_03v3 ad=0.585p pd=3.1u as=0.585p ps=3.1u w=0.9u l=0.33u
X8 VSS.t24 VCNS.t1 a_n8659_n1230 VSS.t23 nfet_03v3 ad=0.52p pd=2.52u as=1.22p ps=5.22u w=2u l=0.33u
X9 VDD.t13 a_n8471_219.t1 a_n8471_219.t2 VDD.t12 pfet_03v3 ad=0.585p pd=3.1u as=0.585p ps=3.1u w=0.9u l=0.33u
X10 VDD.t11 a_n8471_219.t7 a_n683_2840 VDD.t10 pfet_03v3 ad=0.585p pd=3.1u as=0.585p ps=3.1u w=0.9u l=0.33u
X11 a_11009_2840 a_7177_2840 a_10813_2840 VDD.t21 pfet_03v3 ad=1.17p pd=4.9u as=1.17p ps=4.9u w=1.8u l=0.33u
X12 a_3345_2840 a_n487_2840 a_3149_2840 VDD.t20 pfet_03v3 ad=1.17p pd=4.9u as=1.17p ps=4.9u w=1.8u l=0.33u
X13 a_n4208_n141.t0 a_n8471_219.t8 VDD.t9 VDD.t8 pfet_03v3 ad=0.585p pd=3.1u as=0.585p ps=3.1u w=0.9u l=0.33u
X14 a_n487_2840 OUT.t2 a_n671_n1138 VSS.t0 nfet_03v3 ad=0.5124p pd=2.9u as=0.5124p ps=2.9u w=0.84u l=0.33u
X15 a_7177_2840 a_3345_2840 a_6993_n1138 VSS.t9 nfet_03v3 ad=0.5124p pd=2.9u as=0.5124p ps=2.9u w=0.84u l=0.33u
X16 a_n8471_219.t4 VCTRL.t0 a_n9701_6193 VSS.t22 nfet_03v3 ad=0.488p pd=2.82u as=0.488p ps=2.82u w=0.8u l=0.33u
X17 a_18673_2840 OUT.t3 a_18477_2840 VDD.t0 pfet_03v3 ad=1.17p pd=4.9u as=1.17p ps=4.9u w=1.8u l=0.33u
X18 a_18673_2840 OUT.t4 a_18489_n1138 VSS.t2 nfet_03v3 ad=0.5124p pd=2.9u as=0.5124p ps=2.9u w=0.84u l=0.33u
X19 VSS.t17 a_n4208_n141.t4 a_18489_n1138 VSS.t2 nfet_03v3 ad=0.2646p pd=2.1u as=0.2646p ps=2.1u w=0.42u l=0.33u
X20 a_n487_2840 OUT.t5 a_n683_2840 VDD.t1 pfet_03v3 ad=1.17p pd=4.9u as=1.17p ps=4.9u w=1.8u l=0.33u
X21 a_n8659_n1230 VCNS.t2 VSS.t21 VSS.t1 nfet_03v3 ad=0.52p pd=2.52u as=0.52p ps=2.52u w=2u l=0.33u
X22 VDD.t7 a_n8471_219.t9 a_14645_2840 VDD.t6 pfet_03v3 ad=0.585p pd=3.1u as=0.585p ps=3.1u w=0.9u l=0.33u
X23 VSS.t16 a_n4208_n141.t5 a_14657_n1138 VSS.t15 nfet_03v3 ad=0.2646p pd=2.1u as=0.2646p ps=2.1u w=0.42u l=0.33u
X24 VSS.t14 a_n4208_n141.t6 a_3161_n1138 VSS.t13 nfet_03v3 ad=0.2646p pd=2.1u as=0.2646p ps=2.1u w=0.42u l=0.33u
X25 VDD.t5 a_n8471_219.t10 a_6981_2840 VDD.t4 pfet_03v3 ad=0.585p pd=3.1u as=0.585p ps=3.1u w=0.9u l=0.33u
X26 a_n8471_219.t3 VCNB.t1 a_n8659_n1230 VSS.t3 nfet_03v3 ad=0.52p pd=2.52u as=0.52p ps=2.52u w=2u l=0.33u
X27 a_n4208_n141.t2 a_n4208_n141.t1 VSS.t12 VSS.t11 nfet_03v3 ad=0.2646p pd=2.1u as=0.2646p ps=2.1u w=0.42u l=0.33u
X28 a_11009_2840 a_7177_2840 a_10825_n1138 VSS.t7 nfet_03v3 ad=0.5124p pd=2.9u as=0.5124p ps=2.9u w=0.84u l=0.33u
X29 VSS.t10 a_n4208_n141.t7 a_6993_n1138 VSS.t9 nfet_03v3 ad=0.2646p pd=2.1u as=0.2646p ps=2.1u w=0.42u l=0.33u
X30 a_n8659_n1230 VCNB.t2 a_n8471_219.t3 VSS.t19 nfet_03v3 ad=1.22p pd=5.22u as=0.52p ps=2.52u w=2u l=0.33u
X31 a_n8659_n1230 VCNS.t3 VSS.t20 VSS.t19 nfet_03v3 ad=1.22p pd=5.22u as=0.52p ps=2.52u w=2u l=0.33u
X32 a_3345_2840 a_n487_2840 a_3161_n1138 VSS.t13 nfet_03v3 ad=0.5124p pd=2.9u as=0.5124p ps=2.9u w=0.84u l=0.33u
X33 VSS.t8 a_n4208_n141.t8 a_10825_n1138 VSS.t7 nfet_03v3 ad=0.2646p pd=2.1u as=0.2646p ps=2.1u w=0.42u l=0.33u
X34 a_n9701_6193 a_16431_6193 VSS.t5 ppolyf_u r_width=0.8u r_length=0.13m
X35 VDD.t3 a_n8471_219.t11 a_10813_2840 VDD.t2 pfet_03v3 ad=0.585p pd=3.1u as=0.585p ps=3.1u w=0.9u l=0.33u
X36 a_n8659_n1230 VCNB.t3 a_n8471_219.t0 VSS.t1 nfet_03v3 ad=0.52p pd=2.52u as=0.52p ps=2.52u w=2u l=0.33u
X37 OUT.t0 a_11009_2840 a_14645_2840 VDD.t19 pfet_03v3 ad=1.17p pd=4.9u as=1.17p ps=4.9u w=1.8u l=0.33u
R0 a_n8471_219.n1 a_n8471_219.t6 31.1854
R1 a_n8471_219.n0 a_n8471_219.t8 30.4809
R2 a_n8471_219.n0 a_n8471_219.t7 29.7468
R3 a_n8471_219.n0 a_n8471_219.t5 29.7468
R4 a_n8471_219.n2 a_n8471_219.t10 29.7468
R5 a_n8471_219.n2 a_n8471_219.t11 29.7468
R6 a_n8471_219.n1 a_n8471_219.t9 29.7468
R7 a_n8471_219.n3 a_n8471_219.t1 28.2414
R8 a_n8471_219.n0 a_n8471_219.t4 11.7439
R9 a_n8471_219.n3 a_n8471_219.t2 8.52921
R10 a_n8471_219.t0 a_n8471_219.n4 4.56638
R11 a_n8471_219.n4 a_n8471_219.t3 4.38259
R12 a_n8471_219.n4 a_n8471_219.n0 3.5234
R13 a_n8471_219.n0 a_n8471_219.n2 2.8778
R14 a_n8471_219.n2 a_n8471_219.n1 2.8778
R15 a_n8471_219.n0 a_n8471_219.n3 2.4541
R16 VDD.n2 VDD.t14 589.355
R17 VDD.n8 VDD.t6 589.355
R18 VDD.n15 VDD.t2 589.355
R19 VDD.n22 VDD.t4 589.355
R20 VDD.n29 VDD.t16 589.355
R21 VDD.n36 VDD.t10 589.355
R22 VDD.n42 VDD.t12 589.355
R23 VDD.n41 VDD.t8 589.355
R24 VDD.n3 VDD.t0 419.211
R25 VDD.n9 VDD.t19 419.211
R26 VDD.n16 VDD.t21 419.211
R27 VDD.n23 VDD.t18 419.211
R28 VDD.n30 VDD.t20 419.211
R29 VDD.n37 VDD.t1 419.211
R30 VDD.n42 VDD.t13 8.52192
R31 VDD.n41 VDD.t9 8.52192
R32 VDD.n2 VDD.t15 8.46717
R33 VDD.n8 VDD.t7 8.46717
R34 VDD.n15 VDD.t3 8.46717
R35 VDD.n22 VDD.t5 8.46717
R36 VDD.n29 VDD.t17 8.46717
R37 VDD.n36 VDD.t11 8.46717
R38 VDD.n4 VDD.n1 4.5005
R39 VDD.n1 VDD.n0 4.5005
R40 VDD.n4 VDD.n3 4.5005
R41 VDD.n3 VDD.n0 4.5005
R42 VDD.n10 VDD.n7 4.5005
R43 VDD.n7 VDD.n6 4.5005
R44 VDD.n10 VDD.n9 4.5005
R45 VDD.n9 VDD.n6 4.5005
R46 VDD.n17 VDD.n14 4.5005
R47 VDD.n14 VDD.n13 4.5005
R48 VDD.n17 VDD.n16 4.5005
R49 VDD.n16 VDD.n13 4.5005
R50 VDD.n24 VDD.n21 4.5005
R51 VDD.n21 VDD.n20 4.5005
R52 VDD.n24 VDD.n23 4.5005
R53 VDD.n23 VDD.n20 4.5005
R54 VDD.n31 VDD.n28 4.5005
R55 VDD.n28 VDD.n27 4.5005
R56 VDD.n31 VDD.n30 4.5005
R57 VDD.n30 VDD.n27 4.5005
R58 VDD.n38 VDD.n35 4.5005
R59 VDD.n35 VDD.n34 4.5005
R60 VDD.n38 VDD.n37 4.5005
R61 VDD.n37 VDD.n34 4.5005
R62 VDD.n44 VDD.n43 4.06871
R63 VDD VDD.n5 3.40475
R64 VDD.n12 VDD.n11 2.70462
R65 VDD.n19 VDD.n18 2.70462
R66 VDD.n26 VDD.n25 2.70462
R67 VDD.n33 VDD.n32 2.70462
R68 VDD.n40 VDD.n39 2.70462
R69 VDD VDD.n44 0.777875
R70 VDD.n12 VDD 0.737375
R71 VDD.n19 VDD 0.7265
R72 VDD.n26 VDD 0.7265
R73 VDD.n33 VDD 0.7265
R74 VDD.n40 VDD 0.7265
R75 VDD.n44 VDD 0.7265
R76 VDD VDD.n12 0.7115
R77 VDD VDD.n19 0.7115
R78 VDD VDD.n26 0.7115
R79 VDD VDD.n33 0.7115
R80 VDD VDD.n40 0.7115
R81 VDD.n43 VDD.n42 0.181952
R82 VDD.n43 VDD.n41 0.146702
R83 VDD.n5 VDD.n4 0.024117
R84 VDD.n11 VDD.n10 0.024117
R85 VDD.n18 VDD.n17 0.024117
R86 VDD.n25 VDD.n24 0.024117
R87 VDD.n32 VDD.n31 0.024117
R88 VDD.n39 VDD.n38 0.024117
R89 VDD.n5 VDD.n0 0.0237979
R90 VDD.n11 VDD.n6 0.0237979
R91 VDD.n18 VDD.n13 0.0237979
R92 VDD.n25 VDD.n20 0.0237979
R93 VDD.n32 VDD.n27 0.0237979
R94 VDD.n39 VDD.n34 0.0237979
R95 VDD.n2 VDD.n1 0.020375
R96 VDD.n3 VDD.n2 0.020375
R97 VDD.n8 VDD.n7 0.020375
R98 VDD.n9 VDD.n8 0.020375
R99 VDD.n15 VDD.n14 0.020375
R100 VDD.n16 VDD.n15 0.020375
R101 VDD.n22 VDD.n21 0.020375
R102 VDD.n23 VDD.n22 0.020375
R103 VDD.n29 VDD.n28 0.020375
R104 VDD.n30 VDD.n29 0.020375
R105 VDD.n36 VDD.n35 0.020375
R106 VDD.n37 VDD.n36 0.020375
R107 a_n4208_n141.n2 a_n4208_n141.t4 26.5147
R108 a_n4208_n141.n1 a_n4208_n141.t3 25.076
R109 a_n4208_n141.n1 a_n4208_n141.t6 25.076
R110 a_n4208_n141.n3 a_n4208_n141.t7 25.076
R111 a_n4208_n141.n3 a_n4208_n141.t8 25.076
R112 a_n4208_n141.n2 a_n4208_n141.t5 25.076
R113 a_n4208_n141.n0 a_n4208_n141.t1 23.009
R114 a_n4208_n141.n0 a_n4208_n141.t2 12.3005
R115 a_n4208_n141.t0 a_n4208_n141.n1 11.2556
R116 a_n4208_n141.n1 a_n4208_n141.n0 3.08843
R117 a_n4208_n141.n1 a_n4208_n141.n3 2.8778
R118 a_n4208_n141.n3 a_n4208_n141.n2 2.8778
R119 VSS.n1905 VSS.n1904 30440.7
R120 VSS.n1904 VSS.n1886 21018.6
R121 VSS.n1905 VSS.n234 17216.6
R122 VSS.n1886 VSS.n234 11887.6
R123 VSS.n207 VSS.t22 8334.77
R124 VSS.n1953 VSS.n1952 6332.65
R125 VSS.n2063 VSS.n2062 6053.81
R126 VSS.n1904 VSS.n235 5872.22
R127 VSS.n1904 VSS.n1903 4786.34
R128 VSS.n1820 VSS.n234 4237.55
R129 VSS.n142 VSS.n138 3851.03
R130 VSS.n1821 VSS.n234 3453.21
R131 VSS.n778 VSS.n197 2950.24
R132 VSS.n1045 VSS.n1044 2950.24
R133 VSS.n778 VSS.n318 2950.24
R134 VSS.n1629 VSS.n318 2950.24
R135 VSS.n1629 VSS.n259 2950.24
R136 VSS.n1774 VSS.n259 2950.24
R137 VSS.n2294 VSS.n2293 2713.07
R138 VSS.n206 VSS.n205 2388.26
R139 VSS.n2062 VSS.t5 2153.74
R140 VSS.n976 VSS.n197 1959.56
R141 VSS.n941 VSS.n197 1959.56
R142 VSS.n1737 VSS.n197 1959.56
R143 VSS.n906 VSS.n197 1959.56
R144 VSS.n1654 VSS.n197 1959.56
R145 VSS.n2062 VSS.n196 1873.92
R146 VSS.n2212 VSS.n142 1727.25
R147 VSS.n746 VSS.n740 781.367
R148 VSS.n206 VSS.n142 659.034
R149 VSS.t5 VSS.n2061 623.524
R150 VSS.n2061 VSS.n199 621.324
R151 VSS.n2293 VSS.n45 551.149
R152 VSS.n2271 VSS.n45 504.923
R153 VSS.n2263 VSS.n2262 487.846
R154 VSS.n1549 VSS.n1548 487.846
R155 VSS.n453 VSS.n452 487.846
R156 VSS.n1362 VSS.n502 487.846
R157 VSS.n1234 VSS.n556 487.846
R158 VSS.n1106 VSS.n610 487.846
R159 VSS.n207 VSS.n196 475.474
R160 VSS.n716 VSS.n197 475.276
R161 VSS.n826 VSS.n197 475.276
R162 VSS.n1646 VSS.n197 475.276
R163 VSS.n1729 VSS.n197 475.276
R164 VSS.n1549 VSS.n359 461.786
R165 VSS.n452 VSS.n433 461.786
R166 VSS.n1363 VSS.n1362 461.786
R167 VSS.n1235 VSS.n1234 461.786
R168 VSS.n1107 VSS.n1106 461.786
R169 VSS.n198 VSS.n197 429.887
R170 VSS.n1555 VSS.n359 425.95
R171 VSS.n1556 VSS.n1555 425.95
R172 VSS.n1557 VSS.n1556 425.95
R173 VSS.n1557 VSS.n355 425.95
R174 VSS.n1563 VSS.n355 425.95
R175 VSS.n1564 VSS.n1563 425.95
R176 VSS.n1565 VSS.n1564 425.95
R177 VSS.n1565 VSS.n351 425.95
R178 VSS.n1571 VSS.n8 425.95
R179 VSS.n2356 VSS.n8 425.95
R180 VSS.n2254 VSS.n9 425.95
R181 VSS.n2255 VSS.n2254 425.95
R182 VSS.n2255 VSS.n2251 425.95
R183 VSS.n2261 VSS.n2251 425.95
R184 VSS.n2262 VSS.n2261 425.95
R185 VSS.n1516 VSS.n433 425.95
R186 VSS.n1517 VSS.n1516 425.95
R187 VSS.n1518 VSS.n1517 425.95
R188 VSS.n1518 VSS.n429 425.95
R189 VSS.n1524 VSS.n429 425.95
R190 VSS.n1525 VSS.n1524 425.95
R191 VSS.n1527 VSS.n1525 425.95
R192 VSS.n1527 VSS.n1526 425.95
R193 VSS.n1534 VSS.n1533 425.95
R194 VSS.n1535 VSS.n1534 425.95
R195 VSS.n1540 VSS.n1539 425.95
R196 VSS.n1541 VSS.n1540 425.95
R197 VSS.n1541 VSS.n363 425.95
R198 VSS.n1547 VSS.n363 425.95
R199 VSS.n1548 VSS.n1547 425.95
R200 VSS.n1384 VSS.n1363 425.95
R201 VSS.n1384 VSS.n1383 425.95
R202 VSS.n1383 VSS.n1382 425.95
R203 VSS.n1382 VSS.n1364 425.95
R204 VSS.n1376 VSS.n1364 425.95
R205 VSS.n1376 VSS.n1375 425.95
R206 VSS.n1375 VSS.n1374 425.95
R207 VSS.n1374 VSS.n487 425.95
R208 VSS.n488 VSS.n444 425.95
R209 VSS.n1509 VSS.n444 425.95
R210 VSS.n462 VSS.n461 425.95
R211 VSS.n461 VSS.n445 425.95
R212 VSS.n449 VSS.n445 425.95
R213 VSS.n454 VSS.n449 425.95
R214 VSS.n454 VSS.n453 425.95
R215 VSS.n1256 VSS.n1235 425.95
R216 VSS.n1256 VSS.n1255 425.95
R217 VSS.n1255 VSS.n1254 425.95
R218 VSS.n1254 VSS.n1236 425.95
R219 VSS.n1248 VSS.n1236 425.95
R220 VSS.n1248 VSS.n1247 425.95
R221 VSS.n1247 VSS.n1246 425.95
R222 VSS.n1246 VSS.n540 425.95
R223 VSS.n541 VSS.n514 425.95
R224 VSS.n1348 VSS.n514 425.95
R225 VSS.n515 VSS.n506 425.95
R226 VSS.n1354 VSS.n506 425.95
R227 VSS.n1355 VSS.n1354 425.95
R228 VSS.n1356 VSS.n1355 425.95
R229 VSS.n1356 VSS.n502 425.95
R230 VSS.n1128 VSS.n1107 425.95
R231 VSS.n1128 VSS.n1127 425.95
R232 VSS.n1127 VSS.n1126 425.95
R233 VSS.n1126 VSS.n1108 425.95
R234 VSS.n1120 VSS.n1108 425.95
R235 VSS.n1120 VSS.n1119 425.95
R236 VSS.n1119 VSS.n1118 425.95
R237 VSS.n1118 VSS.n594 425.95
R238 VSS.n595 VSS.n568 425.95
R239 VSS.n1220 VSS.n568 425.95
R240 VSS.n569 VSS.n560 425.95
R241 VSS.n1226 VSS.n560 425.95
R242 VSS.n1227 VSS.n1226 425.95
R243 VSS.n1228 VSS.n1227 425.95
R244 VSS.n1228 VSS.n556 425.95
R245 VSS.n1092 VSS.n614 425.95
R246 VSS.n1098 VSS.n614 425.95
R247 VSS.n1099 VSS.n1098 425.95
R248 VSS.n1100 VSS.n1099 425.95
R249 VSS.n1100 VSS.n610 425.95
R250 VSS.n1953 VSS.n198 350.44
R251 VSS.n2029 VSS.n2028 302.466
R252 VSS.n2028 VSS.n2027 302.466
R253 VSS.n2027 VSS.n1986 302.466
R254 VSS.n2021 VSS.n1986 302.466
R255 VSS.n2021 VSS.n2020 302.466
R256 VSS.n2020 VSS.n2019 302.466
R257 VSS.n2019 VSS.n1991 302.466
R258 VSS.n2013 VSS.n1991 302.466
R259 VSS.n747 VSS.n746 278.373
R260 VSS.n747 VSS.n685 278.373
R261 VSS.n1758 VSS.n264 272.08
R262 VSS.n1764 VSS.n264 272.08
R263 VSS.n1765 VSS.n1764 272.08
R264 VSS.n1766 VSS.n1765 272.08
R265 VSS.n1766 VSS.n260 272.08
R266 VSS.n1772 VSS.n260 272.08
R267 VSS.n1773 VSS.n1772 272.08
R268 VSS.n1775 VSS.n255 272.08
R269 VSS.n1781 VSS.n255 272.08
R270 VSS.n1782 VSS.n1781 272.08
R271 VSS.n1783 VSS.n1782 272.08
R272 VSS.n1783 VSS.n251 272.08
R273 VSS.n1789 VSS.n251 272.08
R274 VSS.n1790 VSS.n1789 272.08
R275 VSS.n1791 VSS.n1790 272.08
R276 VSS.n1838 VSS.n1837 272.08
R277 VSS.n1839 VSS.n1838 272.08
R278 VSS.n1839 VSS.n243 272.08
R279 VSS.n1845 VSS.n243 272.08
R280 VSS.n1846 VSS.n1845 272.08
R281 VSS.n1848 VSS.n236 272.08
R282 VSS.n1885 VSS.n237 272.08
R283 VSS.n1879 VSS.n237 272.08
R284 VSS.n1879 VSS.n1878 272.08
R285 VSS.n1878 VSS.n1877 272.08
R286 VSS.n1877 VSS.n1854 272.08
R287 VSS.n1871 VSS.n1854 272.08
R288 VSS.n1871 VSS.n1870 272.08
R289 VSS.n1870 VSS.n1869 272.08
R290 VSS.n1869 VSS.n1858 272.08
R291 VSS.n1863 VSS.n1858 272.08
R292 VSS.n1863 VSS.n1862 272.08
R293 VSS.n1862 VSS.n46 272.08
R294 VSS.n2355 VSS.n9 264.089
R295 VSS.n1539 VSS.n367 264.089
R296 VSS.n1508 VSS.n462 264.089
R297 VSS.n1347 VSS.n515 264.089
R298 VSS.n1219 VSS.n569 264.089
R299 VSS.n1847 VSS.n1846 263.918
R300 VSS.n1044 VSS.n685 250.536
R301 VSS.n739 VSS.n738 242.81
R302 VSS.n738 VSS.n724 242.81
R303 VSS.n732 VSS.n724 242.81
R304 VSS.n732 VSS.n731 242.81
R305 VSS.n731 VSS.n730 242.81
R306 VSS.n730 VSS.n684 242.81
R307 VSS.n1046 VSS.n684 242.81
R308 VSS.n1052 VSS.n680 242.81
R309 VSS.n1053 VSS.n1052 242.81
R310 VSS.n1055 VSS.n1053 242.81
R311 VSS.n1055 VSS.n1054 242.81
R312 VSS.n2293 VSS.n2292 235.351
R313 VSS.n1572 VSS.n1571 230.013
R314 VSS.n2356 VSS.n2355 230.013
R315 VSS.n1533 VSS.n425 230.013
R316 VSS.n1535 VSS.n367 230.013
R317 VSS.n1405 VSS.n488 230.013
R318 VSS.n1509 VSS.n1508 230.013
R319 VSS.n1277 VSS.n541 230.013
R320 VSS.n1348 VSS.n1347 230.013
R321 VSS.n1149 VSS.n595 230.013
R322 VSS.n1220 VSS.n1219 230.013
R323 VSS.n2068 VSS.n192 225.93
R324 VSS.n2069 VSS.n2068 225.93
R325 VSS.n2070 VSS.n2069 225.93
R326 VSS.n2070 VSS.n188 225.93
R327 VSS.n2076 VSS.n188 225.93
R328 VSS.n2081 VSS.n2079 225.93
R329 VSS.n2081 VSS.n2080 225.93
R330 VSS.n2061 VSS.n2060 216.263
R331 VSS.n811 VSS.n810 210.766
R332 VSS.n810 VSS.n809 210.766
R333 VSS.n809 VSS.n770 210.766
R334 VSS.n803 VSS.n770 210.766
R335 VSS.n803 VSS.n802 210.766
R336 VSS.n802 VSS.n801 210.766
R337 VSS.n801 VSS.n774 210.766
R338 VSS.n795 VSS.n794 210.766
R339 VSS.n794 VSS.n793 210.766
R340 VSS.n793 VSS.n779 210.766
R341 VSS.n787 VSS.n779 210.766
R342 VSS.n874 VSS.n873 210.766
R343 VSS.n873 VSS.n872 210.766
R344 VSS.n872 VSS.n834 210.766
R345 VSS.n866 VSS.n834 210.766
R346 VSS.n866 VSS.n865 210.766
R347 VSS.n865 VSS.n864 210.766
R348 VSS.n864 VSS.n838 210.766
R349 VSS.n858 VSS.n857 210.766
R350 VSS.n857 VSS.n856 210.766
R351 VSS.n856 VSS.n842 210.766
R352 VSS.n850 VSS.n842 210.766
R353 VSS.n1645 VSS.n306 210.766
R354 VSS.n1639 VSS.n306 210.766
R355 VSS.n1639 VSS.n1638 210.766
R356 VSS.n1638 VSS.n1637 210.766
R357 VSS.n1637 VSS.n314 210.766
R358 VSS.n1631 VSS.n314 210.766
R359 VSS.n1631 VSS.n1630 210.766
R360 VSS.n1628 VSS.n319 210.766
R361 VSS.n1622 VSS.n319 210.766
R362 VSS.n1622 VSS.n1621 210.766
R363 VSS.n1621 VSS.n1620 210.766
R364 VSS.n1728 VSS.n282 210.766
R365 VSS.n1722 VSS.n282 210.766
R366 VSS.n1722 VSS.n1721 210.766
R367 VSS.n1721 VSS.n1720 210.766
R368 VSS.n1720 VSS.n1688 210.766
R369 VSS.n1714 VSS.n1688 210.766
R370 VSS.n1714 VSS.n1713 210.766
R371 VSS.n1710 VSS.n1709 210.766
R372 VSS.n1709 VSS.n1708 210.766
R373 VSS.n1708 VSS.n1693 210.766
R374 VSS.n1702 VSS.n1693 210.766
R375 VSS.n2062 VSS.n192 208.986
R376 VSS.n1572 VSS.n351 195.938
R377 VSS.n1526 VSS.n425 195.938
R378 VSS.n1405 VSS.n487 195.938
R379 VSS.n1277 VSS.n540 195.938
R380 VSS.n1149 VSS.n594 195.938
R381 VSS.n1886 VSS.n236 195.899
R382 VSS.n218 VSS.n198 183.655
R383 VSS.n2263 VSS.n45 176.399
R384 VSS.n1775 VSS.n1774 168.69
R385 VSS.n2292 VSS.n47 168.69
R386 VSS.n1092 VSS.n1091 168.25
R387 VSS.n1837 VSS.n247 167.329
R388 VSS.n1084 VSS.n1070 157.006
R389 VSS.n1084 VSS.n1083 157.006
R390 VSS.n1083 VSS.n1082 157.006
R391 VSS.n1082 VSS.n1071 157.006
R392 VSS.n1076 VSS.n1071 157.006
R393 VSS.n1076 VSS.n1075 157.006
R394 VSS.n1075 VSS.n604 157.006
R395 VSS.n1139 VSS.n600 157.006
R396 VSS.n1140 VSS.n1139 157.006
R397 VSS.n1141 VSS.n1140 157.006
R398 VSS.n1141 VSS.n596 157.006
R399 VSS.n1148 VSS.n596 157.006
R400 VSS.n1151 VSS.n1150 157.006
R401 VSS.n1151 VSS.n577 157.006
R402 VSS.n1176 VSS.n1175 157.006
R403 VSS.n1175 VSS.n1174 157.006
R404 VSS.n1174 VSS.n1157 157.006
R405 VSS.n1168 VSS.n1157 157.006
R406 VSS.n1168 VSS.n1167 157.006
R407 VSS.n1167 VSS.n1166 157.006
R408 VSS.n1166 VSS.n1161 157.006
R409 VSS.n1161 VSS.n550 157.006
R410 VSS.n1267 VSS.n546 157.006
R411 VSS.n1268 VSS.n1267 157.006
R412 VSS.n1269 VSS.n1268 157.006
R413 VSS.n1269 VSS.n542 157.006
R414 VSS.n1276 VSS.n542 157.006
R415 VSS.n1279 VSS.n1278 157.006
R416 VSS.n1279 VSS.n523 157.006
R417 VSS.n1304 VSS.n1303 157.006
R418 VSS.n1303 VSS.n1302 157.006
R419 VSS.n1302 VSS.n1285 157.006
R420 VSS.n1296 VSS.n1285 157.006
R421 VSS.n1296 VSS.n1295 157.006
R422 VSS.n1295 VSS.n1294 157.006
R423 VSS.n1294 VSS.n1289 157.006
R424 VSS.n1289 VSS.n497 157.006
R425 VSS.n1395 VSS.n493 157.006
R426 VSS.n1396 VSS.n1395 157.006
R427 VSS.n1397 VSS.n1396 157.006
R428 VSS.n1397 VSS.n489 157.006
R429 VSS.n1404 VSS.n489 157.006
R430 VSS.n1407 VSS.n1406 157.006
R431 VSS.n1407 VSS.n470 157.006
R432 VSS.n1465 VSS.n1464 157.006
R433 VSS.n1464 VSS.n1463 157.006
R434 VSS.n1463 VSS.n1413 157.006
R435 VSS.n1457 VSS.n1413 157.006
R436 VSS.n1457 VSS.n1456 157.006
R437 VSS.n1456 VSS.n1455 157.006
R438 VSS.n1455 VSS.n1417 157.006
R439 VSS.n1449 VSS.n1417 157.006
R440 VSS.n1446 VSS.n1421 157.006
R441 VSS.n1440 VSS.n1421 157.006
R442 VSS.n1440 VSS.n1439 157.006
R443 VSS.n1439 VSS.n1438 157.006
R444 VSS.n1438 VSS.n1425 157.006
R445 VSS.n1432 VSS.n1431 157.006
R446 VSS.n1431 VSS.n1430 157.006
R447 VSS.n1607 VSS.n1606 157.006
R448 VSS.n1606 VSS.n1605 157.006
R449 VSS.n1605 VSS.n333 157.006
R450 VSS.n1599 VSS.n333 157.006
R451 VSS.n1599 VSS.n1598 157.006
R452 VSS.n1598 VSS.n1597 157.006
R453 VSS.n1597 VSS.n337 157.006
R454 VSS.n1591 VSS.n337 157.006
R455 VSS.n1588 VSS.n342 157.006
R456 VSS.n1582 VSS.n342 157.006
R457 VSS.n1582 VSS.n1581 157.006
R458 VSS.n1581 VSS.n1580 157.006
R459 VSS.n1580 VSS.n346 157.006
R460 VSS.n1574 VSS.n1573 157.006
R461 VSS.n1573 VSS.n17 157.006
R462 VSS.n2312 VSS.n2311 157.006
R463 VSS.n2311 VSS.n2310 157.006
R464 VSS.n2310 VSS.n35 157.006
R465 VSS.n2304 VSS.n35 157.006
R466 VSS.n2304 VSS.n2303 157.006
R467 VSS.n2303 VSS.n2302 157.006
R468 VSS.n2302 VSS.n39 157.006
R469 VSS.n2296 VSS.n39 157.006
R470 VSS.n1043 VSS.n686 152.905
R471 VSS.n1037 VSS.n686 152.905
R472 VSS.n1037 VSS.n1036 152.905
R473 VSS.n1036 VSS.n1035 152.905
R474 VSS.n1035 VSS.n692 152.905
R475 VSS.n1029 VSS.n692 152.905
R476 VSS.n1029 VSS.n1028 152.905
R477 VSS.n992 VSS.n991 152.905
R478 VSS.n991 VSS.n990 152.905
R479 VSS.n990 VSS.n704 152.905
R480 VSS.n984 VSS.n704 152.905
R481 VSS.n984 VSS.n983 152.905
R482 VSS.n983 VSS.n982 152.905
R483 VSS.n982 VSS.n709 152.905
R484 VSS.n1133 VSS.n1132 150.726
R485 VSS.n1261 VSS.n1260 150.726
R486 VSS.n1389 VSS.n1388 150.726
R487 VSS.n1448 VSS.n1447 150.726
R488 VSS.n1590 VSS.n1589 150.726
R489 VSS.n1045 VSS.n680 150.542
R490 VSS.n1054 VSS.n620 150.542
R491 VSS.n1758 VSS.n218 146.923
R492 VSS.n1847 VSS.n242 131.885
R493 VSS.n740 VSS.n739 131.118
R494 VSS.n795 VSS.n778 130.674
R495 VSS.n787 VSS.n533 130.674
R496 VSS.n858 VSS.n318 130.674
R497 VSS.n850 VSS.n480 130.674
R498 VSS.n1629 VSS.n1628 130.674
R499 VSS.n1620 VSS.n323 130.674
R500 VSS.n1710 VSS.n259 130.674
R501 VSS.n1702 VSS.n27 130.674
R502 VSS.n2060 VSS.n207 128.548
R503 VSS.n2013 VSS.n2012 120.987
R504 VSS.n2078 VSS.n2076 120.873
R505 VSS.n2090 VSS.n180 117.484
R506 VSS.n811 VSS.n716 113.814
R507 VSS.n874 VSS.n826 113.814
R508 VSS.n1646 VSS.n1645 113.814
R509 VSS.n1729 VSS.n1728 113.814
R510 VSS.t2 VSS.n600 107.549
R511 VSS.t15 VSS.n546 107.549
R512 VSS.t7 VSS.n493 107.549
R513 VSS.t9 VSS.n1446 107.549
R514 VSS.t13 VSS.n1588 107.549
R515 VSS.n242 VSS.t0 107.549
R516 VSS.n2079 VSS.n2078 105.058
R517 VSS.n1791 VSS.n247 104.751
R518 VSS.n1774 VSS.n1773 103.391
R519 VSS.n1091 VSS.n618 95.8393
R520 VSS.n1176 VSS.n587 95.7734
R521 VSS.n1304 VSS.n533 95.7734
R522 VSS.n1465 VSS.n480 95.7734
R523 VSS.n1607 VSS.n323 95.7734
R524 VSS.n2312 VSS.n27 95.7734
R525 VSS.n1150 VSS.n1149 94.2034
R526 VSS.n1278 VSS.n1277 94.2034
R527 VSS.n1406 VSS.n1405 94.2034
R528 VSS.n1432 VSS.n425 94.2034
R529 VSS.n1574 VSS.n1572 94.2034
R530 VSS.n1947 VSS.n229 93.8561
R531 VSS.n1914 VSS.n1913 93.8561
R532 VSS.n1941 VSS.n1940 93.8561
R533 VSS.n1922 VSS.n1915 93.8561
R534 VSS.n1934 VSS.n1923 93.8561
R535 VSS.n1933 VSS.n1924 93.8561
R536 VSS.n1927 VSS.n1926 93.8561
R537 VSS.n2237 VSS.n62 93.8561
R538 VSS.n2230 VSS.n2229 93.8561
R539 VSS.n2226 VSS.n127 93.8561
R540 VSS.n2225 VSS.n130 93.8561
R541 VSS.n135 VSS.n134 93.8561
R542 VSS.n2219 VSS.n2218 93.8561
R543 VSS.n1070 VSS.n620 92.6334
R544 VSS.n1046 VSS.n1045 92.268
R545 VSS.n2202 VSS.n2201 86.7903
R546 VSS.n2195 VSS.n158 86.7903
R547 VSS.n2194 VSS.n159 86.7903
R548 VSS.n2188 VSS.n2187 86.7903
R549 VSS.n2182 VSS.n166 86.7903
R550 VSS.t5 VSS.n197 85.0843
R551 VSS.n1028 VSS.n1027 82.5693
R552 VSS.n2295 VSS.n2294 80.858
R553 VSS.n778 VSS.n774 80.0913
R554 VSS.n838 VSS.n318 80.0913
R555 VSS.n1630 VSS.n1629 80.0913
R556 VSS.n1713 VSS.n259 80.0913
R557 VSS.t1 VSS.t23 78.4806
R558 VSS.n1886 VSS.n1885 76.183
R559 VSS.n992 VSS.n703 75.6886
R560 VSS.n1207 VSS.n577 75.3628
R561 VSS.n1335 VSS.n523 75.3628
R562 VSS.n1496 VSS.n470 75.3628
R563 VSS.n1430 VSS.n327 75.3628
R564 VSS.n2343 VSS.n17 75.3628
R565 VSS.n1091 VSS.n1090 71.4377
R566 VSS.n228 VSS.n223 70.8914
R567 VSS.n2294 VSS.n44 69.8676
R568 VSS.n2128 VSS.n2127 67.4011
R569 VSS.n1090 VSS.n620 64.3725
R570 VSS.n1149 VSS.n1148 62.8024
R571 VSS.n1277 VSS.n1276 62.8024
R572 VSS.n1405 VSS.n1404 62.8024
R573 VSS.n1425 VSS.n425 62.8024
R574 VSS.n1572 VSS.n346 62.8024
R575 VSS.n1906 VSS.n1905 57.4122
R576 VSS.n2012 VSS.n63 51.9206
R577 VSS.n2209 VSS.t19 51.2434
R578 VSS.n1133 VSS.t2 49.457
R579 VSS.n1261 VSS.t15 49.457
R580 VSS.n1389 VSS.t7 49.457
R581 VSS.n1447 VSS.t9 49.457
R582 VSS.n1589 VSS.t13 49.457
R583 VSS.t0 VSS.n44 49.457
R584 VSS.n2236 VSS.n63 47.9268
R585 VSS.n2103 VSS.n2102 46.1653
R586 VSS.n2181 VSS.n169 44.3187
R587 VSS.n2078 VSS.n2077 43.857
R588 VSS.n1907 VSS.t11 43.4337
R589 VSS.n2078 VSS.n165 42.9337
R590 VSS.n2293 VSS.n46 36.7314
R591 VSS.n1091 VSS.n619 35.3266
R592 VSS.n2029 VSS.n207 34.7841
R593 VSS.n1952 VSS.n1951 31.4521
R594 VSS.n709 VSS.n197 24.4653
R595 VSS.n1948 VSS.n228 22.9652
R596 VSS.n2208 VSS.t3 21.6979
R597 VSS.n142 VSS.n136 20.9682
R598 VSS.n2061 VSS.n198 20.7673
R599 VSS.t22 VSS.t19 20.313
R600 VSS.n2128 VSS.n151 19.3897
R601 VSS.n1093 VSS.n617 19.3426
R602 VSS.n1952 VSS.t11 18.9713
R603 VSS.n2103 VSS.t3 18.9281
R604 VSS.n2088 VSS.n179 18.4216
R605 VSS.n2093 VSS.n2092 18.4216
R606 VSS.n2097 VSS.n2096 18.4216
R607 VSS.n2099 VSS.n175 18.4216
R608 VSS.n2107 VSS.n175 18.4216
R609 VSS.n2111 VSS.n2109 18.4216
R610 VSS.n2115 VSS.n173 18.4216
R611 VSS.n2118 VSS.n2117 18.4216
R612 VSS.n2030 VSS.n1984 18.4216
R613 VSS.n2026 VSS.n1984 18.4216
R614 VSS.n2026 VSS.n1987 18.4216
R615 VSS.n2022 VSS.n1987 18.4216
R616 VSS.n2022 VSS.n1990 18.4216
R617 VSS.n2018 VSS.n1990 18.4216
R618 VSS.n2018 VSS.n1992 18.4216
R619 VSS.n2014 VSS.n1992 18.4216
R620 VSS.n2014 VSS.n2011 18.4216
R621 VSS.n2009 VSS.n1994 18.4216
R622 VSS.n2005 VSS.n2004 18.4216
R623 VSS.n2002 VSS.n1999 18.4216
R624 VSS.n1727 VSS.n284 18.4216
R625 VSS.n1723 VSS.n284 18.4216
R626 VSS.n1723 VSS.n1687 18.4216
R627 VSS.n1719 VSS.n1687 18.4216
R628 VSS.n1719 VSS.n1689 18.4216
R629 VSS.n1715 VSS.n1689 18.4216
R630 VSS.n1715 VSS.n1712 18.4216
R631 VSS.n1712 VSS.n1711 18.4216
R632 VSS.n1711 VSS.n1691 18.4216
R633 VSS.n1707 VSS.n1691 18.4216
R634 VSS.n1707 VSS.n1694 18.4216
R635 VSS.n1703 VSS.n1694 18.4216
R636 VSS.n1703 VSS.n1701 18.4216
R637 VSS.n1698 VSS.n1697 18.4216
R638 VSS.n1644 VSS.n308 18.4216
R639 VSS.n1640 VSS.n308 18.4216
R640 VSS.n1640 VSS.n313 18.4216
R641 VSS.n1636 VSS.n313 18.4216
R642 VSS.n1636 VSS.n315 18.4216
R643 VSS.n1632 VSS.n315 18.4216
R644 VSS.n1632 VSS.n317 18.4216
R645 VSS.n1627 VSS.n317 18.4216
R646 VSS.n1627 VSS.n320 18.4216
R647 VSS.n1623 VSS.n320 18.4216
R648 VSS.n1623 VSS.n322 18.4216
R649 VSS.n1619 VSS.n322 18.4216
R650 VSS.n1619 VSS.n324 18.4216
R651 VSS.n1615 VSS.n1614 18.4216
R652 VSS.n875 VSS.n833 18.4216
R653 VSS.n871 VSS.n833 18.4216
R654 VSS.n871 VSS.n835 18.4216
R655 VSS.n867 VSS.n835 18.4216
R656 VSS.n867 VSS.n837 18.4216
R657 VSS.n863 VSS.n837 18.4216
R658 VSS.n863 VSS.n839 18.4216
R659 VSS.n859 VSS.n839 18.4216
R660 VSS.n859 VSS.n841 18.4216
R661 VSS.n855 VSS.n841 18.4216
R662 VSS.n855 VSS.n843 18.4216
R663 VSS.n851 VSS.n843 18.4216
R664 VSS.n851 VSS.n849 18.4216
R665 VSS.n846 VSS.n845 18.4216
R666 VSS.n812 VSS.n769 18.4216
R667 VSS.n808 VSS.n769 18.4216
R668 VSS.n808 VSS.n771 18.4216
R669 VSS.n804 VSS.n771 18.4216
R670 VSS.n804 VSS.n773 18.4216
R671 VSS.n800 VSS.n773 18.4216
R672 VSS.n800 VSS.n775 18.4216
R673 VSS.n796 VSS.n775 18.4216
R674 VSS.n796 VSS.n777 18.4216
R675 VSS.n792 VSS.n777 18.4216
R676 VSS.n792 VSS.n780 18.4216
R677 VSS.n788 VSS.n780 18.4216
R678 VSS.n788 VSS.n786 18.4216
R679 VSS.n783 VSS.n782 18.4216
R680 VSS.n1026 VSS.n995 18.4216
R681 VSS.n1022 VSS.n1021 18.4216
R682 VSS.n1018 VSS.n1017 18.4216
R683 VSS.n1014 VSS.n1013 18.4216
R684 VSS.n1010 VSS.n1009 18.4216
R685 VSS.n1006 VSS.n1005 18.4216
R686 VSS.n1002 VSS.n1001 18.4216
R687 VSS.n998 VSS.n997 18.4216
R688 VSS.n671 VSS.n670 18.4216
R689 VSS.n667 VSS.n666 18.4216
R690 VSS.n664 VSS.n626 18.4216
R691 VSS.n660 VSS.n658 18.4216
R692 VSS.n656 VSS.n628 18.4216
R693 VSS.n652 VSS.n650 18.4216
R694 VSS.n648 VSS.n630 18.4216
R695 VSS.n644 VSS.n642 18.4216
R696 VSS.n642 VSS.n641 18.4216
R697 VSS.n638 VSS.n637 18.4216
R698 VSS.n635 VSS.n617 18.4216
R699 VSS.n1206 VSS.n589 18.4216
R700 VSS.n1202 VSS.n1201 18.4216
R701 VSS.n1198 VSS.n1197 18.4216
R702 VSS.n1194 VSS.n1193 18.4216
R703 VSS.n1190 VSS.n1189 18.4216
R704 VSS.n1186 VSS.n1185 18.4216
R705 VSS.n1182 VSS.n1181 18.4216
R706 VSS.n1209 VSS.n576 18.4216
R707 VSS.n1218 VSS.n573 18.4216
R708 VSS.n1218 VSS.n574 18.4216
R709 VSS.n1214 VSS.n1213 18.4216
R710 VSS.n1334 VSS.n535 18.4216
R711 VSS.n1330 VSS.n1329 18.4216
R712 VSS.n1326 VSS.n1325 18.4216
R713 VSS.n1322 VSS.n1321 18.4216
R714 VSS.n1318 VSS.n1317 18.4216
R715 VSS.n1314 VSS.n1313 18.4216
R716 VSS.n1310 VSS.n1309 18.4216
R717 VSS.n1337 VSS.n522 18.4216
R718 VSS.n1346 VSS.n519 18.4216
R719 VSS.n1346 VSS.n520 18.4216
R720 VSS.n1342 VSS.n1341 18.4216
R721 VSS.n1495 VSS.n482 18.4216
R722 VSS.n1491 VSS.n1490 18.4216
R723 VSS.n1487 VSS.n1486 18.4216
R724 VSS.n1483 VSS.n1482 18.4216
R725 VSS.n1479 VSS.n1478 18.4216
R726 VSS.n1475 VSS.n1474 18.4216
R727 VSS.n1471 VSS.n1470 18.4216
R728 VSS.n1498 VSS.n469 18.4216
R729 VSS.n1507 VSS.n466 18.4216
R730 VSS.n1507 VSS.n467 18.4216
R731 VSS.n1503 VSS.n1502 18.4216
R732 VSS.n383 VSS.n381 18.4216
R733 VSS.n387 VSS.n380 18.4216
R734 VSS.n391 VSS.n389 18.4216
R735 VSS.n395 VSS.n378 18.4216
R736 VSS.n399 VSS.n397 18.4216
R737 VSS.n403 VSS.n376 18.4216
R738 VSS.n407 VSS.n405 18.4216
R739 VSS.n411 VSS.n374 18.4216
R740 VSS.n414 VSS.n413 18.4216
R741 VSS.n415 VSS.n414 18.4216
R742 VSS.n419 VSS.n418 18.4216
R743 VSS.n2342 VSS.n29 18.4216
R744 VSS.n2338 VSS.n2337 18.4216
R745 VSS.n2334 VSS.n2333 18.4216
R746 VSS.n2330 VSS.n2329 18.4216
R747 VSS.n2326 VSS.n2325 18.4216
R748 VSS.n2322 VSS.n2321 18.4216
R749 VSS.n2318 VSS.n2317 18.4216
R750 VSS.n2345 VSS.n16 18.4216
R751 VSS.n2354 VSS.n13 18.4216
R752 VSS.n2354 VSS.n14 18.4216
R753 VSS.n2350 VSS.n2349 18.4216
R754 VSS.n737 VSS.n723 18.4216
R755 VSS.n737 VSS.n725 18.4216
R756 VSS.n733 VSS.n725 18.4216
R757 VSS.n733 VSS.n727 18.4216
R758 VSS.n729 VSS.n727 18.4216
R759 VSS.n729 VSS.n683 18.4216
R760 VSS.n1047 VSS.n683 18.4216
R761 VSS.n1047 VSS.n681 18.4216
R762 VSS.n1051 VSS.n681 18.4216
R763 VSS.n1051 VSS.n679 18.4216
R764 VSS.n1056 VSS.n679 18.4216
R765 VSS.n1056 VSS.n677 18.4216
R766 VSS.n1060 VSS.n677 18.4216
R767 VSS.n1063 VSS.n1062 18.4216
R768 VSS.n762 VSS.n761 18.4216
R769 VSS.n759 VSS.n742 18.4216
R770 VSS.n755 VSS.n754 18.4216
R771 VSS.n752 VSS.n745 18.4216
R772 VSS.n748 VSS.n745 18.4216
R773 VSS.n748 VSS.n687 18.4216
R774 VSS.n1042 VSS.n687 18.4216
R775 VSS.n1042 VSS.n688 18.4216
R776 VSS.n1038 VSS.n688 18.4216
R777 VSS.n1038 VSS.n691 18.4216
R778 VSS.n1034 VSS.n691 18.4216
R779 VSS.n1034 VSS.n693 18.4216
R780 VSS.n1030 VSS.n693 18.4216
R781 VSS.n1030 VSS.n695 18.4216
R782 VSS.n993 VSS.n702 18.4216
R783 VSS.n989 VSS.n702 18.4216
R784 VSS.n989 VSS.n705 18.4216
R785 VSS.n985 VSS.n705 18.4216
R786 VSS.n985 VSS.n708 18.4216
R787 VSS.n981 VSS.n708 18.4216
R788 VSS.n981 VSS.n710 18.4216
R789 VSS.n977 VSS.n710 18.4216
R790 VSS.n977 VSS.n712 18.4216
R791 VSS.n974 VSS.n713 18.4216
R792 VSS.n970 VSS.n969 18.4216
R793 VSS.n967 VSS.n717 18.4216
R794 VSS.n963 VSS.n962 18.4216
R795 VSS.n954 VSS.n815 18.4216
R796 VSS.n950 VSS.n949 18.4216
R797 VSS.n947 VSS.n818 18.4216
R798 VSS.n943 VSS.n942 18.4216
R799 VSS.n942 VSS.n821 18.4216
R800 VSS.n939 VSS.n822 18.4216
R801 VSS.n935 VSS.n934 18.4216
R802 VSS.n932 VSS.n827 18.4216
R803 VSS.n928 VSS.n927 18.4216
R804 VSS.n919 VSS.n878 18.4216
R805 VSS.n915 VSS.n914 18.4216
R806 VSS.n912 VSS.n881 18.4216
R807 VSS.n908 VSS.n907 18.4216
R808 VSS.n907 VSS.n884 18.4216
R809 VSS.n904 VSS.n885 18.4216
R810 VSS.n900 VSS.n899 18.4216
R811 VSS.n896 VSS.n895 18.4216
R812 VSS.n892 VSS.n891 18.4216
R813 VSS.n300 VSS.n299 18.4216
R814 VSS.n304 VSS.n297 18.4216
R815 VSS.n1648 VSS.n290 18.4216
R816 VSS.n1653 VSS.n288 18.4216